# generated using pymatgen
data_ZnH16C22NO4
_symmetry_space_group_name_H-M   'P 1'
_cell_length_a   20.17103262
_cell_length_b   20.17103859
_cell_length_c   20.56328980
_cell_angle_alpha   61.25872532
_cell_angle_beta   61.25867713
_cell_angle_gamma   65.88234099
_symmetry_Int_Tables_number   1
_chemical_formula_structural   ZnH16C22NO4
_chemical_formula_sum   'Zn8 H128 C176 N8 O32'
_cell_volume   6258.48681240
_cell_formula_units_Z   8
loop_
 _symmetry_equiv_pos_site_id
 _symmetry_equiv_pos_as_xyz
  1  'x, y, z'
loop_
 _atom_site_type_symbol
 _atom_site_label
 _atom_site_symmetry_multiplicity
 _atom_site_fract_x
 _atom_site_fract_y
 _atom_site_fract_z
 _atom_site_occupancy
 _atom_site_pbe_bader_charge
 _atom_site_pbe_bader_spin_density
 _atom_site_pbe_cm5_charge
 _atom_site_pbe_ddec_charge
 _atom_site_pbe_ddec_spin_density
 _atom_site_pbe_ddec_sum_bond_order
 _atom_site_pbe_magmom
Zn  Zn0  1  0.82651707  0.35494408  0.01488018  1  1.294676  0  0.665372  0.821391  0  2.428983  0
Zn  Zn1  1  0.95356413  0.42610431  0.92065084  1  1.290512  0  0.669549  0.821938  0  2.411493  0
Zn  Zn2  1  0.35494365  0.82651775  0.51487909  1  1.294652  0  0.66535  0.821409  0  2.429008  0
Zn  Zn3  1  0.42610348  0.95356403  0.42065012  1  1.290522  0  0.669554  0.821978  0  2.411471  0
Zn  Zn4  1  0.64505639  0.17348322  0.48511938  1  1.294751  0  0.665353  0.821386  0  2.429042  0
Zn  Zn5  1  0.57389713  0.04643623  0.57934889  1  1.29056  0  0.669538  0.821939  0  2.411413  0
Zn  Zn6  1  0.17348353  0.64505562  0.98511910  1  1.294639  0  0.665319  0.821312  0  2.429125  0
Zn  Zn7  1  0.04643706  0.57389581  0.07934894  1  1.290541  0  0.66953  0.821892  0  2.41152  0
H  H8  1  0.67871228  0.48804644  0.86703627  1  0.0942  0  0.101523  0.107146  0  1.012071  0
H  H9  1  0.84785841  0.62007529  0.76861966  1  0.085503  0  0.103173  0.110271  0  1.00737  0
H  H10  1  0.78241581  0.72631125  0.67351860  1  0.067346  0  0.102944  0.105401  0  0.995316  0
H  H11  1  0.69269430  0.81904171  0.59196264  1  0.060833  0  0.104893  0.11136  0  0.998073  0
H  H12  1  0.59465243  0.88294180  0.52672705  1  0.090954  0  0.101364  0.103138  0  1.031837  0
H  H13  1  0.48849437  0.68731739  0.66940443  1  0.07035  0  0.101048  0.108148  0  1.011888  0
H  H14  1  0.55630445  0.53980320  0.72521052  1  0.014379  0  0.086566  0.118416  0  1.009999  0
H  H15  1  0.61448148  0.47826572  0.78529066  1  0.035769  0  0.088092  0.120991  0  1.000493  0
H  H16  1  0.65845348  0.53247167  0.68340356  1  0.05124  0  0.090532  0.126167  0  0.994524  0
H  H17  1  0.46858735  0.60981007  0.82500133  1  0.019871  0  0.087135  0.122276  0  1.003431  0
H  H18  1  0.51026520  0.65029587  0.85281925  1  0.004452  0  0.08176  0.110757  0  1.024167  0
H  H19  1  0.52701087  0.54758151  0.88475702  1  0.024874  0  0.088945  0.123419  0  0.99877  0
H  H20  1  0.30171085  0.09151559  0.25021621  1  0.086226  0  0.101425  0.105524  0  1.013955  0
H  H21  1  0.17804384  0.91231595  0.42487689  1  0.080308  0  0.101552  0.108069  0  1.007703  0
H  H22  1  0.07637220  0.97336292  0.36281853  1  0.074616  0  0.101999  0.103926  0  0.995138  0
H  H23  1  0.98632766  0.06031276  0.28245417  1  0.042919  0  0.100553  0.10197  0  1.01675  0
H  H24  1  0.91881676  0.16256117  0.18763791  1  0.076371  0  0.099239  0.102935  0  1.022118  0
H  H25  1  0.10355177  0.28240007  0.06050324  1  0.097897  0  0.102234  0.106396  0  1.039062  0
H  H26  1  0.23739035  0.24111018  0.18622380  1  0.031077  0  0.086421  0.119525  0  1.012556  0
H  H27  1  0.17795488  0.29938649  0.12732775  1  0.041054  0  0.089951  0.129296  0  0.997305  0
H  H28  1  0.13459009  0.25396993  0.23181751  1  0.036978  0  0.087421  0.120049  0  1.001728  0
H  H29  1  0.31494645  0.15866647  0.09659972  1  0.021347  0  0.087827  0.121482  0  1.000372  0
H  H30  1  0.26531013  0.11572720  0.08037723  1  0.019003  0  0.089308  0.123962  0  0.997928  0
H  H31  1  0.25441247  0.21855477  0.03878491  1  0.036154  0  0.087395  0.124195  0  1.01388  0
H  H32  1  0.56407390  0.97803211  0.41362932  1  0.126708  0  0.125574  0.10415  0  1.001971  0
H  H33  1  0.65534876  0.06656734  0.32277613  1  0.108783  0  0.110633  0.118274  0  1.029589  0
H  H34  1  0.50861718  0.19256183  0.18089803  1  0.08609  0  0.112827  0.117298  0  0.994495  0
H  H35  1  0.42616796  0.09540799  0.27624314  1  0.12343  0  0.125921  0.103399  0  0.988866  0
H  H36  1  0.67061073  0.18538852  0.28191089  1  0.090572  0  0.113398  0.127234  0  1.018298  0
H  H37  1  0.76374242  0.27204837  0.18484103  1  0.126343  0  0.12156  0.090966  0  1.025651  0
H  H38  1  0.72061062  0.30106450  0.99497772  1  0.111918  0  0.131365  0.106582  0  0.96469  0
H  H39  1  0.62884638  0.21210635  0.08181948  1  0.082894  0  0.11499  0.120541  0  0.989931  0
H  H40  1  0.48804591  0.67871319  0.36703630  1  0.094075  0  0.101498  0.107107  0  1.012109  0
H  H41  1  0.62007616  0.84785886  0.26861779  1  0.085507  0  0.103182  0.110288  0  1.007339  0
H  H42  1  0.72631174  0.78241539  0.17351776  1  0.067346  0  0.102938  0.105377  0  0.995361  0
H  H43  1  0.81904232  0.69269363  0.09196278  1  0.060829  0  0.104919  0.111418  0  0.99804  0
H  H44  1  0.88294180  0.59465215  0.02672676  1  0.091128  0  0.101368  0.103161  0  1.031844  0
H  H45  1  0.68731723  0.48849375  0.16940488  1  0.070332  0  0.101046  0.108128  0  1.011878  0
H  H46  1  0.53980349  0.55630458  0.22520998  1  0.014388  0  0.086554  0.118413  0  1.010014  0
H  H47  1  0.47826528  0.61448246  0.28529010  1  0.035754  0  0.088079  0.120981  0  1.000543  0
H  H48  1  0.53247272  0.65845421  0.18340289  1  0.051201  0  0.090561  0.126216  0  0.994464  0
H  H49  1  0.60981016  0.46858666  0.32500171  1  0.019879  0  0.087141  0.122277  0  1.003418  0
H  H50  1  0.65029494  0.51026497  0.35281990  1  0.004448  0  0.08176  0.110756  0  1.024177  0
H  H51  1  0.54758073  0.52701128  0.38475734  1  0.024854  0  0.088944  0.123417  0  0.99876  0
H  H52  1  0.09151494  0.30171033  0.75021619  1  0.086254  0  0.101394  0.10549  0  1.014029  0
H  H53  1  0.91231630  0.17804300  0.92487773  1  0.080305  0  0.101539  0.108067  0  1.007676  0
H  H54  1  0.97336309  0.07637153  0.86281934  1  0.074601  0  0.102017  0.10396  0  0.995156  0
H  H55  1  0.06031363  0.98632724  0.78245409  1  0.042952  0  0.100558  0.10199  0  1.016715  0
H  H56  1  0.16256162  0.91881564  0.68763830  1  0.076356  0  0.099234  0.102906  0  1.022137  0
H  H57  1  0.28240024  0.10355121  0.56050420  1  0.09788  0  0.102234  0.106384  0  1.039096  0
H  H58  1  0.24110913  0.23739004  0.68622478  1  0.031094  0  0.086433  0.119532  0  1.012535  0
H  H59  1  0.29938585  0.17795534  0.62732814  1  0.041067  0  0.089955  0.129286  0  0.997292  0
H  H60  1  0.25396947  0.13458975  0.73181771  1  0.036978  0  0.087409  0.120029  0  1.001748  0
H  H61  1  0.15866686  0.31494533  0.59660046  1  0.021603  0  0.087837  0.121499  0  1.000361  0
H  H62  1  0.11572784  0.26530907  0.58037684  1  0.018995  0  0.089302  0.123933  0  0.997959  0
H  H63  1  0.21855531  0.25441228  0.53878510  1  0.036152  0  0.087402  0.124197  0  1.013862  0
H  H64  1  0.97803187  0.56407419  0.91362904  1  0.126718  0  0.125567  0.104122  0  1.002  0
H  H65  1  0.06656753  0.65534922  0.82277488  1  0.108779  0  0.110622  0.118246  0  1.029629  0
H  H66  1  0.19256223  0.50861529  0.68089868  1  0.08617  0  0.112829  0.117277  0  0.994504  0
H  H67  1  0.09540751  0.42616702  0.77624425  1  0.123414  0  0.125923  0.103385  0  0.988842  0
H  H68  1  0.18539024  0.67060850  0.78191016  1  0.090598  0  0.113399  0.127221  0  1.018325  0
H  H69  1  0.27204879  0.76374068  0.68484117  1  0.126342  0  0.121551  0.090972  0  1.025636  0
H  H70  1  0.30106408  0.72061200  0.49497656  1  0.111891  0  0.131358  0.106558  0  0.964719  0
H  H71  1  0.21210675  0.62884755  0.58181677  1  0.082897  0  0.114915  0.120388  0  0.989998  0
H  H72  1  0.51195528  0.32128694  0.63296203  1  0.094048  0  0.101494  0.106995  0  1.012149  0
H  H73  1  0.37992444  0.15214084  0.73138247  1  0.085543  0  0.103179  0.110283  0  1.007341  0
H  H74  1  0.27369004  0.21758572  0.82648079  1  0.067289  0  0.102965  0.10543  0  0.995358  0
H  H75  1  0.18095770  0.30730564  0.90803747  1  0.060823  0  0.104907  0.111386  0  0.998043  0
H  H76  1  0.11705880  0.40534755  0.97327253  1  0.090978  0  0.101371  0.103149  0  1.031858  0
H  H77  1  0.31268395  0.51150525  0.83059495  1  0.070339  0  0.101057  0.108168  0  1.011864  0
H  H78  1  0.46019712  0.44369512  0.77478979  1  0.014469  0  0.086546  0.118395  0  1.01002  0
H  H79  1  0.52173533  0.38551724  0.71470918  1  0.035752  0  0.088079  0.120981  0  1.000499  0
H  H80  1  0.46752788  0.34154548  0.81659639  1  0.051208  0  0.090536  0.126168  0  0.994532  0
H  H81  1  0.39018986  0.53141261  0.67499902  1  0.019842  0  0.087122  0.122231  0  1.003468  0
H  H82  1  0.34970451  0.48973557  0.64718051  1  0.004297  0  0.081752  0.110749  0  1.024213  0
H  H83  1  0.45241988  0.47298955  0.61524190  1  0.02486  0  0.088945  0.123406  0  0.998742  0
H  H84  1  0.90848449  0.69828908  0.24978427  1  0.086154  0  0.101434  0.105545  0  1.013937  0
H  H85  1  0.08768371  0.82195571  0.07512327  1  0.080311  0  0.10155  0.108065  0  1.007715  0
H  H86  1  0.02663635  0.92362845  0.13718036  1  0.074611  0  0.102011  0.103943  0  0.995235  0
H  H87  1  0.93968639  0.01367259  0.21754638  1  0.042807  0  0.100558  0.101986  0  1.016735  0
H  H88  1  0.83743840  0.08118307  0.31236270  1  0.076482  0  0.09924  0.10293  0  1.022159  0
H  H89  1  0.71759921  0.89644876  0.43949648  1  0.097842  0  0.102299  0.106502  0  1.039184  0
H  H90  1  0.75889090  0.76261036  0.31377541  1  0.031084  0  0.086435  0.119549  0  1.012545  0
H  H91  1  0.70061359  0.82204463  0.37267254  1  0.041053  0  0.089952  0.129278  0  0.99728  0
H  H92  1  0.74603114  0.86540994  0.26818254  1  0.036932  0  0.087416  0.120038  0  1.001756  0
H  H93  1  0.84133374  0.68505381  0.40340007  1  0.021362  0  0.087833  0.121481  0  1.000353  0
H  H94  1  0.88427276  0.73469063  0.41962341  1  0.018986  0  0.089301  0.123936  0  0.997957  0
H  H95  1  0.78144471  0.74558755  0.46121537  1  0.036149  0  0.087398  0.124193  0  1.013867  0
H  H96  1  0.02196816  0.43592621  0.08637019  1  0.126687  0  0.125564  0.104153  0  1.001973  0
H  H97  1  0.93343250  0.34465174  0.17722456  1  0.10878  0  0.110616  0.118271  0  1.029642  0
H  H98  1  0.80743780  0.49138511  0.31910055  1  0.086069  0  0.112831  0.117287  0  0.994485  0
H  H99  1  0.90459193  0.57383295  0.22375497  1  0.123211  0  0.125952  0.10344  0  0.988922  0
H  H100  1  0.81460979  0.32939078  0.21808911  1  0.090578  0  0.113406  0.127226  0  1.018285  0
H  H101  1  0.72795123  0.23625916  0.31515833  1  0.12612  0  0.12156  0.090957  0  1.02567  0
H  H102  1  0.69893596  0.27938953  0.50502261  1  0.111937  0  0.131372  0.106578  0  0.964683  0
H  H103  1  0.78789329  0.37115398  0.41818094  1  0.08288  0  0.114931  0.120412  0  0.990014  0
H  H104  1  0.32128543  0.51195508  0.13296352  1  0.094069  0  0.101484  0.107041  0  1.012084  0
H  H105  1  0.15214044  0.37992369  0.23138225  1  0.085512  0  0.103195  0.110318  0  1.007321  0
H  H106  1  0.21758538  0.27368887  0.32648020  1  0.067367  0  0.102947  0.105394  0  0.995352  0
H  H107  1  0.30730456  0.18095840  0.40803776  1  0.060816  0  0.104909  0.111388  0  0.998033  0
H  H108  1  0.40534644  0.11705944  0.47327232  1  0.090965  0  0.101391  0.103139  0  1.031854  0
H  H109  1  0.51150508  0.31268371  0.33059474  1  0.070357  0  0.101069  0.108193  0  1.011834  0
H  H110  1  0.44369557  0.46019550  0.27479048  1  0.014438  0  0.086545  0.118403  0  1.010017  0
H  H111  1  0.38551738  0.52173440  0.21471022  1  0.035775  0  0.0881  0.121004  0  1.000478  0
H  H112  1  0.34154537  0.46752731  0.31659689  1  0.05128  0  0.09056  0.126196  0  0.994561  0
H  H113  1  0.53141266  0.39018921  0.17499941  1  0.019837  0  0.087138  0.122269  0  1.003448  0
H  H114  1  0.48973541  0.34970383  0.14718052  1  0.004287  0  0.081758  0.110773  0  1.024173  0
H  H115  1  0.47298974  0.45241875  0.11524199  1  0.024863  0  0.088954  0.123443  0  0.998738  0
H  H116  1  0.69828860  0.90848494  0.74978469  1  0.08615  0  0.101407  0.105522  0  1.013966  0
H  H117  1  0.82195619  0.08768389  0.57512406  1  0.080307  0  0.101545  0.108053  0  1.007706  0
H  H118  1  0.92362840  0.02663564  0.63718129  1  0.074613  0  0.102009  0.103953  0  0.99521  0
H  H119  1  0.01367236  0.93968651  0.71754705  1  0.042806  0  0.100569  0.101991  0  1.016703  0
H  H120  1  0.08118327  0.83743866  0.81236305  1  0.0765  0  0.099244  0.102925  0  1.022114  0
H  H121  1  0.89644941  0.71759892  0.93949611  1  0.097861  0  0.102238  0.106382  0  1.039118  0
H  H122  1  0.76260969  0.75889135  0.81377537  1  0.03108  0  0.086458  0.119562  0  1.012578  0
H  H123  1  0.82204399  0.70061419  0.87267238  1  0.04106  0  0.08992  0.129231  0  0.997336  0
H  H124  1  0.86540994  0.74603103  0.76818242  1  0.036921  0  0.087411  0.120019  0  1.001744  0
H  H125  1  0.68505358  0.84133393  0.90339999  1  0.021353  0  0.087833  0.121477  0  1.00037  0
H  H126  1  0.73468990  0.88427320  0.91962346  1  0.01899  0  0.089311  0.123951  0  0.997934  0
H  H127  1  0.74558697  0.78144520  0.96121528  1  0.036159  0  0.08739  0.124171  0  1.013869  0
H  H128  1  0.43592612  0.02196773  0.58637066  1  0.126713  0  0.125584  0.10416  0  1.001951  0
H  H129  1  0.34465242  0.93343165  0.67722418  1  0.108801  0  0.110633  0.118273  0  1.02963  0
H  H130  1  0.49138458  0.80743703  0.81910208  1  0.086157  0  0.112822  0.11728  0  0.994476  0
H  H131  1  0.57383265  0.90459227  0.72375637  1  0.123414  0  0.125935  0.103417  0  0.988847  0
H  H132  1  0.32938987  0.81461061  0.71808915  1  0.090579  0  0.113373  0.127177  0  1.018313  0
H  H133  1  0.23625762  0.72795259  0.81515841  1  0.126  0  0.121558  0.09095  0  1.02565  0
H  H134  1  0.27938882  0.69893547  0.00502295  1  0.111902  0  0.131372  0.10658  0  0.964699  0
H  H135  1  0.37115364  0.78789235  0.91818104  1  0.083125  0  0.11491  0.120372  0  0.990006  0
C  C136  1  0.70018569  0.54037913  0.82416858  1  -0.020418  0  -0.085072  -0.137646  0  3.957356  0
C  C137  1  0.76663209  0.54913547  0.82269043  1  -0.038097  0  -0.019487  -0.033255  0  3.971586  0
C  C138  1  0.79597896  0.61575745  0.76822027  1  -0.034548  0  -0.085921  -0.094672  0  3.990522  0
C  C139  1  0.75961296  0.67453757  0.71549082  1  -0.014977  0  -0.094112  -0.133983  0  4.017952  0
C  C140  1  0.64879940  0.78950996  0.60915122  1  -0.065643  0  -0.092424  -0.133339  0  4.007932  0
C  C141  1  0.59417026  0.82514969  0.57224578  1  -0.020018  0  -0.089412  -0.104741  0  4.002474  0
C  C142  1  0.53717717  0.78812188  0.59347189  1  -0.003619  0  -0.024212  -0.041451  0  3.98518  0
C  C143  1  0.53331808  0.71474564  0.65411602  1  0.004179  0  -0.08785  -0.140072  0  3.960524  0
C  C144  1  0.59323940  0.60185914  0.75990966  1  0.05217  0  -0.005056  0.166183  0  3.837191  0
C  C145  1  0.66431963  0.59826261  0.77100264  1  -0.035882  0  -0.00711  0.018081  0  3.888103  0
C  C146  1  0.69362793  0.66553054  0.71709436  1  -0.083501  0  -0.012088  0.019986  0  4.036666  0
C  C147  1  0.64500035  0.71625497  0.66899747  1  -0.035669  0  -0.010706  0.02105  0  4.033623  0
C  C148  1  0.58658754  0.67955510  0.69214012  1  -0.076802  0  -0.007783  0.017947  0  3.891936  0
C  C149  1  0.60656791  0.53395519  0.73691235  1  -0.076636  0  -0.234581  -0.404378  0  3.907615  0
C  C150  1  0.52028711  0.60251349  0.83521745  1  -0.026258  0  -0.236605  -0.404943  0  3.912446  0
C  C151  1  0.80685636  0.48767766  0.87909581  1  1.5743  0  0.210692  0.591531  0  4.172489  0
C  C152  1  0.48083113  0.82642509  0.55103412  1  1.563616  0  0.20776  0.581221  0  4.189796  0
C  C153  1  0.25222308  0.06681632  0.27355404  1  -0.101351  0  -0.0855  -0.138226  0  3.955486  0
C  C154  1  0.24469411  0.99862385  0.34122644  1  -0.032709  0  -0.020316  -0.033561  0  3.974735  0
C  C155  1  0.18172492  0.96521289  0.37250896  1  0.027527  0  -0.0887  -0.09932  0  4.00277  0
C  C156  1  0.12537000  0.99925088  0.33806356  1  -0.093011  0  -0.093637  -0.12971  0  4.019201  0
C  C157  1  0.01173433  0.10889695  0.23450706  1  -0.045803  0  -0.094683  -0.132753  0  4.009729  0
C  C158  1  0.97421377  0.16554232  0.18195926  1  0.017609  0  -0.093371  -0.10916  0  4.007356  0
C  C159  1  0.00723084  0.22776837  0.11952703  1  -0.089733  0  -0.026017  -0.045872  0  3.996745  0
C  C160  1  0.07878320  0.23394573  0.10954010  1  0.014175  0  -0.086212  -0.14062  0  3.952958  0
C  C161  1  0.19092084  0.17450904  0.16634448  1  0.067282  0  -0.004338  0.16592  0  3.838512  0
C  C162  1  0.19627287  0.10102042  0.23878322  1  0.059848  0  -0.004007  0.021655  0  3.883805  0
C  C163  1  0.13265955  0.06755350  0.27139406  1  -0.073271  0  -0.009775  0.023255  0  4.031803  0
C  C164  1  0.08234246  0.11601684  0.22489539  1  -0.058204  0  -0.009257  0.028033  0  4.022117  0
C  C165  1  0.11552491  0.17871403  0.16278756  1  -0.057523  0  -0.002468  0.02429  0  3.885543  0
C  C166  1  0.18474712  0.24659821  0.17877714  1  -0.07648  0  -0.236032  -0.407659  0  3.905473  0
C  C167  1  0.26064005  0.16625958  0.09080248  1  -0.053193  0  -0.235695  -0.40566  0  3.903117  0
C  C168  1  0.30230506  0.96151550  0.38210817  1  1.558396  0  0.21151  0.590431  0  4.174027  0
C  C169  1  0.96520343  0.28807791  0.06442741  1  1.569689  0  0.207272  0.578802  0  4.19552  0
C  C170  1  0.55522287  0.02590208  0.36064850  1  0.538464  0  0.06268  0.116227  0  3.889189  0
C  C171  1  0.60481961  0.07612060  0.31033112  1  -0.041888  0  -0.071477  -0.154698  0  3.909058  0
C  C172  1  0.58966522  0.13739413  0.24370162  1  -0.022936  0  0.016123  0.102126  0  3.985543  0
C  C173  1  0.52429099  0.14505300  0.23069148  1  -0.051202  0  -0.076  -0.171765  0  3.949119  0
C  C174  1  0.47755832  0.09222963  0.28360075  1  0.538235  0  0.059931  0.104856  0  3.923628  0
C  C175  1  0.64170056  0.19132631  0.18963823  1  -0.007062  0  0.020184  0.11386  0  3.975352  0
C  C176  1  0.68010969  0.20913604  0.21877287  1  0.007727  0  -0.073374  -0.166352  0  3.912432  0
C  C177  1  0.73092985  0.25785557  0.16584990  1  0.477783  0  0.056676  0.101294  0  3.923965  0
C  C178  1  0.70732064  0.27386714  0.05892669  1  0.514572  0  0.061992  0.105191  0  3.922334  0
C  C179  1  0.65589941  0.22515732  0.10782844  1  -0.081046  0  -0.075686  -0.175513  0  3.94768  0
C  C180  1  0.54037991  0.70018671  0.32416743  1  -0.020518  0  -0.085124  -0.137713  0  3.95764  0
C  C181  1  0.54913496  0.76663288  0.32268905  1  -0.037944  0  -0.019445  -0.033234  0  3.971719  0
C  C182  1  0.61575717  0.79597910  0.26821907  1  -0.034544  0  -0.085941  -0.094687  0  3.9906  0
C  C183  1  0.67453698  0.75961363  0.21548950  1  -0.014996  0  -0.094124  -0.134167  0  4.017928  0
C  C184  1  0.78951033  0.64879962  0.10915153  1  -0.065602  0  -0.092426  -0.133347  0  4.007898  0
C  C185  1  0.82514959  0.59416850  0.07224625  1  -0.020181  0  -0.089404  -0.104795  0  4.002496  0
C  C186  1  0.78812186  0.53717651  0.09347277  1  -0.003667  0  -0.024205  -0.041416  0  3.985245  0
C  C187  1  0.71474660  0.53331810  0.15411565  1  0.004178  0  -0.087825  -0.139969  0  3.960565  0
C  C188  1  0.60185906  0.59323948  0.25991077  1  0.052218  0  -0.005084  0.166196  0  3.837084  0
C  C189  1  0.59826090  0.66432042  0.27100276  1  -0.035994  0  -0.00706  0.017983  0  3.887891  0
C  C190  1  0.66553035  0.69362865  0.21709328  1  -0.083466  0  -0.0121  0.020539  0  4.035789  0
C  C191  1  0.71625459  0.64500025  0.16899636  1  -0.035539  0  -0.010724  0.020831  0  4.033578  0
C  C192  1  0.67955599  0.58658738  0.19213940  1  -0.076859  0  -0.007791  0.017879  0  3.891989  0
C  C193  1  0.53395344  0.60656888  0.23691240  1  -0.076598  0  -0.234576  -0.404427  0  3.907592  0
C  C194  1  0.60251343  0.52028728  0.33521849  1  -0.026258  0  -0.23659  -0.404923  0  3.912398  0
C  C195  1  0.48767793  0.80685871  0.37909433  1  1.574537  0  0.210677  0.591496  0  4.172569  0
C  C196  1  0.82642358  0.48083033  0.05103525  1  1.563504  0  0.207614  0.580941  0  4.189789  0
C  C197  1  0.06681676  0.25222323  0.77355318  1  -0.101374  0  -0.085474  -0.138182  0  3.955562  0
C  C198  1  0.99862398  0.24469350  0.84122727  1  -0.032701  0  -0.020334  -0.033615  0  3.974725  0
C  C199  1  0.96521370  0.18172315  0.87250904  1  0.027318  0  -0.088741  -0.099362  0  4.002738  0
C  C200  1  0.99925085  0.12536928  0.83806449  1  -0.092553  0  -0.093654  -0.129748  0  4.019256  0
C  C201  1  0.10889802  0.01173356  0.73450577  1  -0.046  0  -0.094706  -0.132771  0  4.009786  0
C  C202  1  0.16554158  0.97421379  0.68195920  1  0.017762  0  -0.093411  -0.109195  0  4.007359  0
C  C203  1  0.22776869  0.00723152  0.61952635  1  -0.089724  0  -0.025967  -0.045825  0  3.99665  0
C  C204  1  0.23394735  0.07878263  0.60953845  1  0.014185  0  -0.08622  -0.140614  0  3.952849  0
C  C205  1  0.17450904  0.19092075  0.66634341  1  0.067196  0  -0.004336  0.166005  0  3.838545  0
C  C206  1  0.10102058  0.19627417  0.73878241  1  0.059732  0  -0.004017  0.021617  0  3.883737  0
C  C207  1  0.06755314  0.13265868  0.77139402  1  -0.073396  0  -0.009731  0.023346  0  4.031674  0
C  C208  1  0.11601650  0.08234221  0.72489503  1  -0.058202  0  -0.009261  0.027991  0  4.022046  0
C  C209  1  0.17871338  0.11552790  0.66278727  1  -0.057466  0  -0.002424  0.024319  0  3.885337  0
C  C210  1  0.24659750  0.18474708  0.67877733  1  -0.076486  0  -0.236039  -0.40766  0  3.905451  0
C  C211  1  0.16625956  0.26063870  0.59080350  1  -0.053424  0  -0.235707  -0.40567  0  3.903153  0
C  C212  1  0.96151961  0.30230660  0.88210469  1  1.557903  0  0.211452  0.590307  0  4.174245  0
C  C213  1  0.28807825  0.96520265  0.56442670  1  1.565624  0  0.20727  0.578795  0  4.195455  0
C  C214  1  0.02590147  0.55522314  0.86064915  1  0.538459  0  0.062693  0.11628  0  3.889149  0
C  C215  1  0.07612162  0.60482008  0.81033043  1  -0.041874  0  -0.071506  -0.154736  0  3.909087  0
C  C216  1  0.13739446  0.58966452  0.74370130  1  -0.023296  0  0.016165  0.102185  0  3.985589  0
C  C217  1  0.14505551  0.52429041  0.73069151  1  -0.050991  0  -0.076009  -0.171749  0  3.949051  0
C  C218  1  0.09222984  0.47755660  0.78360240  1  0.538201  0  0.059912  0.104867  0  3.923376  0
C  C219  1  0.19132598  0.64170088  0.68963725  1  -0.007102  0  0.020256  0.113913  0  3.975346  0
C  C220  1  0.20913479  0.68010817  0.71877270  1  0.007969  0  -0.073367  -0.166295  0  3.912415  0
C  C221  1  0.25785483  0.73092923  0.66585102  1  0.477309  0  0.056649  0.10121  0  3.923764  0
C  C222  1  0.27386724  0.70732118  0.55892491  1  0.514683  0  0.062002  0.105205  0  3.922423  0
C  C223  1  0.22515740  0.65589963  0.60782780  1  -0.081075  0  -0.075661  -0.175388  0  3.947727  0
C  C224  1  0.45962127  0.29981228  0.67583191  1  -0.020358  0  -0.085091  -0.1375  0  3.957375  0
C  C225  1  0.45086682  0.23336823  0.67730853  1  -0.038074  0  -0.019496  -0.033297  0  3.971687  0
C  C226  1  0.38424343  0.20402060  0.73178070  1  -0.034567  0  -0.085923  -0.094671  0  3.990567  0
C  C227  1  0.32546421  0.24038649  0.78450980  1  -0.014951  0  -0.094144  -0.134239  0  4.018021  0
C  C228  1  0.21048970  0.35120078  0.89084818  1  -0.065641  0  -0.092414  -0.133289  0  4.007904  0
C  C229  1  0.17485041  0.40582794  0.92775437  1  -0.019826  0  -0.089451  -0.104803  0  4.002498  0
C  C230  1  0.21187991  0.46282291  0.90652707  1  -0.003717  0  -0.024182  -0.041428  0  3.985204  0
C  C231  1  0.28525400  0.46668104  0.84588390  1  0.003956  0  -0.087839  -0.140045  0  3.960627  0
C  C232  1  0.39814096  0.40675979  0.74008947  1  0.052128  0  -0.005042  0.166296  0  3.837138  0
C  C233  1  0.40173914  0.33568168  0.72899712  1  -0.035904  0  -0.007113  0.0179  0  3.88777  0
C  C234  1  0.33447084  0.30637147  0.78290553  1  -0.083432  0  -0.012051  0.020585  0  4.035796  0
C  C235  1  0.28374602  0.35500001  0.83100217  1  -0.035661  0  -0.010715  0.02083  0  4.033533  0
C  C236  1  0.32044519  0.41341218  0.80785870  1  -0.076583  0  -0.007789  0.017888  0  3.892009  0
C  C237  1  0.46604542  0.39343124  0.76308799  1  -0.076583  0  -0.234569  -0.404408  0  3.907618  0
C  C238  1  0.39748542  0.47971227  0.66478266  1  -0.026057  0  -0.236575  -0.404888  0  3.912439  0
C  C239  1  0.51231977  0.19314055  0.62090556  1  1.574419  0  0.210666  0.591585  0  4.172413  0
C  C240  1  0.17357469  0.51916822  0.94896616  1  1.563567  0  0.207715  0.581068  0  4.189776  0
C  C241  1  0.93318501  0.74777619  0.22644568  1  -0.101245  0  -0.085488  -0.138249  0  3.955457  0
C  C242  1  0.00137661  0.75530506  0.15877353  1  -0.032659  0  -0.020316  -0.033514  0  3.974818  0
C  C243  1  0.03478689  0.81827429  0.12749083  1  0.027528  0  -0.088685  -0.099319  0  4.002785  0
C  C244  1  0.00074918  0.87463055  0.16193549  1  -0.092696  0  -0.093653  -0.129733  0  4.019265  0
C  C245  1  0.89110258  0.98826613  0.26549351  1  -0.045958  0  -0.094682  -0.132747  0  4.0097  0
C  C246  1  0.83445788  0.02578731  0.31804142  1  0.017616  0  -0.093417  -0.109224  0  4.007372  0
C  C247  1  0.77223135  0.99277001  0.38047380  1  -0.089589  0  -0.026005  -0.045854  0  3.996604  0
C  C248  1  0.76605150  0.92121522  0.39046254  1  0.014093  0  -0.086265  -0.140741  0  3.952845  0
C  C249  1  0.82549155  0.80907781  0.33365690  1  0.067217  0  -0.004373  0.165954  0  3.838636  0
C  C250  1  0.89897945  0.80372623  0.26121827  1  0.059724  0  -0.00404  0.021586  0  3.883787  0
C  C251  1  0.93244629  0.86733960  0.22860697  1  -0.073531  0  -0.009757  0.023301  0  4.031753  0
C  C252  1  0.88398411  0.91765693  0.27510452  1  -0.058197  0  -0.009238  0.028062  0  4.022037  0
C  C253  1  0.82128664  0.88447137  0.33721249  1  -0.057356  0  -0.002415  0.024325  0  3.885275  0
C  C254  1  0.75340252  0.81525163  0.32122318  1  -0.076413  0  -0.236032  -0.407656  0  3.905428  0
C  C255  1  0.83374046  0.73936057  0.40919675  1  -0.053201  0  -0.235705  -0.405652  0  3.903213  0
C  C256  1  0.03848333  0.69769368  0.11789371  1  1.557917  0  0.211458  0.590357  0  4.174133  0
C  C257  1  0.71192176  0.03479606  0.43557479  1  1.565666  0  0.207236  0.578752  0  4.195469  0
C  C258  1  0.97409856  0.44477782  0.13935078  1  0.538236  0  0.062658  0.116169  0  3.889265  0
C  C259  1  0.92387899  0.39518018  0.18966810  1  -0.041654  0  -0.071457  -0.154663  0  3.908964  0
C  C260  1  0.86260440  0.41033560  0.25629861  1  -0.022947  0  0.016129  0.102082  0  3.985553  0
C  C261  1  0.85494452  0.47570943  0.26930896  1  -0.05116  0  -0.075989  -0.171699  0  3.949017  0
C  C262  1  0.90777077  0.52244366  0.21639808  1  0.538355  0  0.059866  0.104785  0  3.92348  0
C  C263  1  0.80867289  0.35830092  0.31036137  1  -0.007046  0  0.02017  0.113864  0  3.975303  0
C  C264  1  0.79086291  0.31989221  0.28122714  1  0.007688  0  -0.073365  -0.166325  0  3.912353  0
C  C265  1  0.74214345  0.26907158  0.33414932  1  0.477788  0  0.056634  0.101242  0  3.923943  0
C  C266  1  0.72613280  0.29268091  0.44107254  1  0.514482  0  0.06203  0.105266  0  3.922426  0
C  C267  1  0.77484147  0.34410161  0.39217157  1  -0.081067  0  -0.075635  -0.175385  0  3.947751  0
C  C268  1  0.29981028  0.45962224  0.17583259  1  -0.020865  0  -0.085122  -0.137616  0  3.957454  0
C  C269  1  0.23336678  0.45086690  0.17731133  1  -0.03761  0  -0.019436  -0.033166  0  3.971743  0
C  C270  1  0.20401933  0.38424392  0.23178126  1  -0.034547  0  -0.085914  -0.094713  0  3.990491  0
C  C271  1  0.24038649  0.32546409  0.28451002  1  -0.015076  0  -0.094114  -0.134173  0  4.018031  0
C  C272  1  0.35120062  0.21048988  0.39084828  1  -0.065657  0  -0.092447  -0.133371  0  4.007942  0
C  C273  1  0.40582860  0.17485042  0.42775462  1  -0.019834  0  -0.08944  -0.104724  0  4.002388  0
C  C274  1  0.46282228  0.21187978  0.40652798  1  -0.003781  0  -0.024219  -0.041477  0  3.985246  0
C  C275  1  0.46668077  0.28525278  0.34588518  1  0.003749  0  -0.087849  -0.140055  0  3.960615  0
C  C276  1  0.40676004  0.39814084  0.24009053  1  0.05216  0  -0.005012  0.166245  0  3.837094  0
C  C277  1  0.33567924  0.40173919  0.22899792  1  -0.035874  0  -0.007093  0.017916  0  3.887776  0
C  C278  1  0.30636920  0.33447112  0.28290613  1  -0.083443  0  -0.012081  0.020613  0  4.035906  0
C  C279  1  0.35499909  0.28374444  0.33100347  1  -0.036073  0  -0.010706  0.020857  0  4.033374  0
C  C280  1  0.41341190  0.32044488  0.30786007  1  -0.075922  0  -0.007833  0.017822  0  3.891943  0
C  C281  1  0.39343094  0.46604436  0.26308977  1  -0.076631  0  -0.234606  -0.404431  0  3.907662  0
C  C282  1  0.47971291  0.39748578  0.16478183  1  -0.026041  0  -0.23663  -0.404995  0  3.912348  0
C  C283  1  0.19313900  0.51232103  0.12090788  1  1.574677  0  0.210595  0.591346  0  4.172493  0
C  C284  1  0.51916657  0.17357473  0.44896648  1  1.563582  0  0.207736  0.58115  0  4.189816  0
C  C285  1  0.74777636  0.93318422  0.72644686  1  -0.101509  0  -0.085456  -0.138195  0  3.955368  0
C  C286  1  0.75530593  0.00137768  0.65877323  1  -0.03262  0  -0.020339  -0.033556  0  3.974743  0
C  C287  1  0.81827509  0.03478638  0.62749226  1  0.027538  0  -0.088687  -0.099319  0  4.002906  0
C  C288  1  0.87463061  0.00074938  0.66193546  1  -0.092774  0  -0.093671  -0.129767  0  4.019336  0
C  C289  1  0.98826569  0.89110232  0.76549416  1  -0.045848  0  -0.094723  -0.132781  0  4.009798  0
C  C290  1  0.02578568  0.83445822  0.81804115  1  0.017601  0  -0.093395  -0.109181  0  4.007305  0
C  C291  1  0.99276918  0.77223146  0.88047344  1  -0.089762  0  -0.025967  -0.045789  0  3.996597  0
C  C292  1  0.92121680  0.76605185  0.89046192  1  0.014207  0  -0.086219  -0.140652  0  3.952843  0
C  C293  1  0.80907802  0.82549107  0.83365737  1  0.067238  0  -0.004361  0.165901  0  3.838616  0
C  C294  1  0.80372599  0.89897912  0.76121794  1  0.05999  0  -0.004054  0.021559  0  3.883797  0
C  C295  1  0.86733990  0.93244704  0.72860586  1  -0.073495  0  -0.009765  0.023312  0  4.031662  0
C  C296  1  0.91765873  0.88398328  0.77510536  1  -0.058201  0  -0.009212  0.028038  0  4.022021  0
C  C297  1  0.88447163  0.82128720  0.83721243  1  -0.057475  0  -0.002449  0.024341  0  3.885337  0
C  C298  1  0.81525233  0.75340177  0.82122304  1  -0.076419  0  -0.236003  -0.407559  0  3.905466  0
C  C299  1  0.73935998  0.83374082  0.90919674  1  -0.05321  0  -0.235714  -0.405635  0  3.903177  0
C  C300  1  0.69769261  0.03848207  0.61789544  1  1.558215  0  0.211496  0.590423  0  4.17407  0
C  C301  1  0.03479717  0.71192066  0.93557387  1  1.569593  0  0.2072  0.578749  0  4.195622  0
C  C302  1  0.44477715  0.97409775  0.63935148  1  0.538226  0  0.062717  0.116275  0  3.889069  0
C  C303  1  0.39518099  0.92387853  0.68966843  1  -0.041625  0  -0.071492  -0.154728  0  3.908984  0
C  C304  1  0.41033595  0.86260373  0.75629923  1  -0.023273  0  0.016167  0.102152  0  3.985477  0
C  C305  1  0.47571018  0.85494487  0.76930840  1  -0.050981  0  -0.076016  -0.171727  0  3.949051  0
C  C306  1  0.52244287  0.90776937  0.71639908  1  0.538245  0  0.059889  0.104775  0  3.923548  0
C  C307  1  0.35830004  0.80867282  0.81036278  1  -0.007054  0  0.020198  0.113882  0  3.975359  0
C  C308  1  0.31989091  0.79086310  0.78122766  1  0.007707  0  -0.073342  -0.166297  0  3.91244  0
C  C309  1  0.26907018  0.74214483  0.83414932  1  0.477633  0  0.056678  0.101316  0  3.923926  0
C  C310  1  0.29268055  0.72613299  0.94107211  1  0.514586  0  0.062022  0.105222  0  3.922481  0
C  C311  1  0.34410118  0.77484124  0.89217187  1  -0.081317  0  -0.07565  -0.175369  0  3.947844  0
N  N312  1  0.49289583  0.03367047  0.34732269  1  -1.240368  0  -0.320195  -0.202761  0  3.519984  0
N  N313  1  0.74446296  0.28962326  0.08753307  1  -1.232733  0  -0.318528  -0.194143  0  3.518473  0
N  N314  1  0.03366776  0.49289478  0.84732542  1  -1.240269  0  -0.320168  -0.202751  0  3.519855  0
N  N315  1  0.28962352  0.74446231  0.58753082  1  -1.232536  0  -0.31853  -0.194139  0  3.518404  0
N  N316  1  0.96633167  0.50710350  0.15267508  1  -1.240274  0  -0.320147  -0.202702  0  3.519939  0
N  N317  1  0.71037594  0.25553936  0.41246662  1  -1.23262  0  -0.318545  -0.194197  0  3.518517  0
N  N318  1  0.50710478  0.96632979  0.65267730  1  -1.240349  0  -0.320189  -0.202735  0  3.519872  0
N  N319  1  0.25553764  0.71037643  0.91246816  1  -1.232429  0  -0.318548  -0.194177  0  3.518462  0
O  O320  1  0.77648557  0.42985165  0.93063272  1  -1.173619  0  -0.325075  -0.552003  0  2.300606  0
O  O321  1  0.86869868  0.49799713  0.87179560  1  -1.171219  0  -0.319899  -0.556051  0  2.341061  0
O  O322  1  0.48017223  0.89670674  0.50392392  1  -1.183327  0  -0.316327  -0.553973  0  2.357791  0
O  O323  1  0.43763257  0.78576275  0.56512865  1  -1.168097  0  -0.322409  -0.550715  0  2.322187  0
O  O324  1  0.35853437  0.99323714  0.35332310  1  -1.16831  0  -0.320691  -0.551489  0  2.313606  0
O  O325  1  0.29023747  0.90078947  0.44395816  1  -1.177725  0  -0.320259  -0.554565  0  2.348287  0
O  O326  1  0.00383320  0.33270414  0.99912399  1  -1.170383  0  -0.315154  -0.53702  0  2.315255  0
O  O327  1  0.89325552  0.29088028  0.08772312  1  -1.187856  0  -0.32176  -0.566488  0  2.356407  0
O  O328  1  0.42985179  0.77648523  0.43063160  1  -1.173539  0  -0.325087  -0.552007  0  2.30051  0
O  O329  1  0.49799636  0.86869796  0.37179559  1  -1.171454  0  -0.319855  -0.555996  0  2.341247  0
O  O330  1  0.89670967  0.48017141  0.00392100  1  -1.183178  0  -0.316274  -0.553871  0  2.357724  0
O  O331  1  0.78576193  0.43763233  0.06512870  1  -1.168149  0  -0.322364  -0.550575  0  2.32218  0
O  O332  1  0.99323777  0.35853326  0.85332105  1  -1.167942  0  -0.320607  -0.551359  0  2.313924  0
O  O333  1  0.90079146  0.29023653  0.94395685  1  -1.177591  0  -0.320271  -0.554545  0  2.348039  0
O  O334  1  0.33270324  0.00383333  0.49912343  1  -1.170394  0  -0.315166  -0.53702  0  2.315186  0
O  O335  1  0.29088096  0.89325610  0.58772013  1  -1.183792  0  -0.321784  -0.566499  0  2.356441  0
O  O336  1  0.57014826  0.22351912  0.56936429  1  -1.173555  0  -0.325015  -0.551981  0  2.300103  0
O  O337  1  0.50200601  0.13130414  0.62820319  1  -1.171464  0  -0.319908  -0.556097  0  2.341423  0
O  O338  1  0.10329268  0.51982844  0.99607593  1  -1.183339  0  -0.31633  -0.553904  0  2.357818  0
O  O339  1  0.21423926  0.56236835  0.93487081  1  -1.168123  0  -0.322388  -0.550639  0  2.322098  0
O  O340  1  0.00676399  0.64146560  0.14667809  1  -1.167884  0  -0.320635  -0.551426  0  2.313743  0
O  O341  1  0.09920973  0.70976415  0.05604169  1  -1.177669  0  -0.320288  -0.554579  0  2.348101  0
O  O342  1  0.66729796  0.99616735  0.50087608  1  -1.170418  0  -0.315143  -0.536993  0  2.315296  0
O  O343  1  0.70911965  0.10674473  0.41227911  1  -1.183781  0  -0.321758  -0.566453  0  2.356329  0
O  O344  1  0.22351389  0.57015002  0.06936812  1  -1.173659  0  -0.325001  -0.551899  0  2.300271  0
O  O345  1  0.13130135  0.50200327  0.12820557  1  -1.171528  0  -0.319856  -0.555954  0  2.341299  0
O  O346  1  0.51982839  0.10329465  0.49607408  1  -1.183389  0  -0.316328  -0.553955  0  2.357903  0
O  O347  1  0.56236573  0.21423976  0.43487088  1  -1.168071  0  -0.322385  -0.550651  0  2.32204  0
O  O348  1  0.64146684  0.00676468  0.64667685  1  -1.168219  0  -0.320648  -0.551452  0  2.313874  0
O  O349  1  0.70976314  0.09921079  0.55604280  1  -1.17765  0  -0.320292  -0.554602  0  2.348019  0
O  O350  1  0.99616800  0.66729768  0.00087401  1  -1.170399  0  -0.315119  -0.536963  0  2.315315  0
O  O351  1  0.10674449  0.70911673  0.91227966  1  -1.187708  0  -0.321746  -0.566473  0  2.356444  0
