# generated using pymatgen
data_Zn2H21C28N6ClO8
_symmetry_space_group_name_H-M   'P 1'
_cell_length_a   9.84760673
_cell_length_b   11.02189687
_cell_length_c   11.00907547
_cell_angle_alpha   92.19443239
_cell_angle_beta   92.49476075
_cell_angle_gamma   91.57787222
_symmetry_Int_Tables_number   1
_chemical_formula_structural   Zn2H21C28N6ClO8
_chemical_formula_sum   'Zn2 H21 C28 N6 Cl1 O8'
_cell_volume   1192.39893780
_cell_formula_units_Z   1
loop_
 _symmetry_equiv_pos_site_id
 _symmetry_equiv_pos_as_xyz
  1  'x, y, z'
loop_
 _atom_site_type_symbol
 _atom_site_label
 _atom_site_symmetry_multiplicity
 _atom_site_fract_x
 _atom_site_fract_y
 _atom_site_fract_z
 _atom_site_occupancy
 _atom_site_pbe_bader_charge
 _atom_site_pbe_bader_spin_density
 _atom_site_pbe_cm5_charge
 _atom_site_pbe_ddec_charge
 _atom_site_pbe_ddec_spin_density
 _atom_site_pbe_ddec_sum_bond_order
 _atom_site_pbe_magmom
Zn  Zn0  1  0.35807711  0.49964161  0.48837716  1  1.285298  0  0.675162  0.831802  0  2.36728  0
Zn  Zn1  1  0.64646121  0.50397096  0.50108568  1  1.286715  0  0.673707  0.834805  0  2.356461  0
H  H2  1  0.71225071  0.53304187  0.12312249  1  0.112012  0  0.105384  0.123642  0  1.012644  0
H  H3  1  0.25229675  0.43843386  0.77118560  1  0.102823  0  0.096837  0.111737  0  1.034515  0
H  H4  1  0.69937072  0.13128385  0.57209956  1  0.060285  0  0.101895  0.102231  0  1.004756  0
H  H5  1  0.71130317  0.90672181  0.57578247  1  0.084443  0  0.100471  0.10416  0  1.00248  0
H  H6  1  0.23536994  0.86413518  0.32563720  1  0.092379  0  0.093436  0.107057  0  1.012911  0
H  H7  1  0.25166387  0.64061885  0.67181586  1  0.533099  0  0.309452  0.332442  0  0.964706  0
H  H8  1  0.10228063  0.69815322  0.72238796  1  0.462556  0  0.326164  0.322758  0  0.905709  0
H  H9  1  0.13458662  0.26828676  0.17038618  1  0.390572  0  0.29131  0.279152  0  0.953819  0
H  H10  1  0.23551974  0.37654163  0.23807974  1  0.450724  0  0.275371  0.2817  0  1.021579  0
H  H11  1  0.88009817  0.17714011  0.42607337  1  0.380025  0  0.274557  0.251826  0  0.996518  0
H  H12  1  0.74068012  0.22421510  0.36026821  1  0.438727  0  0.275879  0.281346  0  0.999237  0
H  H13  1  0.17547141  0.86143447  0.47664084  1  0.044595  0  0.087824  0.098067  0  1.004471  0
H  H14  1  0.31218280  0.65537452  0.27105423  1  0.45076  0  0.295875  0.297191  0  0.998153  0
H  H15  1  0.14237507  0.65340227  0.24304368  1  0.431175  0  0.305244  0.296085  0  0.938133  0
H  H16  1  0.21759387  0.08964780  0.32837439  1  0.047769  0  0.09596  0.103997  0  0.993996  0
H  H17  1  0.16109967  0.08912155  0.48097341  1  0.022241  0  0.092645  0.098442  0  0.996154  0
H  H18  1  0.88169951  0.63927279  0.63778767  1  0.119  0  0.126097  0.115295  0  0.995204  0
H  H19  1  0.10155391  0.24675538  0.38490602  1  0.057128  0  0.102238  0.047439  0  1.027395  0
H  H20  1  0.87124500  0.36339260  0.24103002  1  0.080063  0  0.114953  0.085706  0  0.947581  0
H  H21  1  0.02672650  0.57870255  0.06784897  1  0.072196  0  0.092182  0.097064  0  1.028653  0
H  H22  1  0.03358096  0.46613151  0.86896261  1  0.068319  0  0.0857  0.086294  0  1.036667  0
C  C23  1  0.48852842  0.26762156  0.49464678  1  1.580174  0  0.220413  0.606467  0  4.159538  0
C  C24  1  0.61777643  0.94829445  0.54394608  1  0.031073  0  -0.084918  -0.095798  0  3.985057  0
C  C25  1  0.50617391  0.87139850  0.50460437  1  -0.031634  0  -0.016176  -0.078788  0  3.977083  0
C  C26  1  0.50396277  0.51796728  0.25984222  1  1.576397  0  0.215224  0.587872  0  4.159319  0
C  C27  1  0.38857695  0.92969898  0.46752681  1  0.021145  0  -0.004586  0.066492  0  3.884939  0
C  C28  1  0.24409148  0.90864279  0.41676518  1  -0.055372  0  -0.156603  -0.194372  0  3.86866  0
C  C29  1  0.23443263  0.05141993  0.41834818  1  -0.026412  0  -0.153467  -0.195803  0  3.880021  0
C  C30  1  0.92414790  0.43007760  0.42773368  1  0.523214  0  0.100129  0.051896  0  3.908641  0
C  C31  1  0.93363654  0.57859152  0.57569613  1  0.554388  0  0.05336  -0.061109  0  3.824156  0
C  C32  1  0.07907281  0.58274837  0.57521081  1  0.985019  0  0.242089  0.405627  0  4.032553  0
C  C33  1  0.06440875  0.43370379  0.42672778  1  0.481897  0  0.128786  0.143332  0  3.94167  0
C  C34  1  0.37109033  0.54711887  0.05440438  1  -0.041439  0  -0.006862  -0.040676  0  3.859904  0
C  C35  1  0.07018588  0.32764134  0.33522094  1  0.403121  0  0.019329  0.090458  0  3.897506  0
C  C36  1  0.90798108  0.32822454  0.32828058  1  0.363775  0  0.018162  0.093386  0  3.878593  0
C  C37  1  0.51178679  0.73643395  0.50099405  1  1.540483  0  0.215688  0.601248  0  4.163304  0
C  C38  1  0.50676277  0.50800355  0.73121560  1  1.574885  0  0.218029  0.615428  0  4.135306  0
C  C39  1  0.24367920  0.58514321  0.10029332  1  0.463811  0  0.101183  0.272253  0  4.061612  0
C  C40  1  0.12428150  0.55642717  0.03062266  1  -0.014561  0  -0.115862  -0.21653  0  4.033835  0
C  C41  1  0.12851576  0.49625385  0.91696236  1  -0.09445  0  -0.108398  -0.074733  0  4.117562  0
C  C42  1  0.25087419  0.47796206  0.86284524  1  -0.090954  0  -0.125115  -0.192784  0  4.049047  0
C  C43  1  0.37471035  0.51234182  0.92666390  1  0.017496  0  -0.002251  0.089353  0  3.955705  0
C  C44  1  0.49599121  0.54083846  0.12573298  1  0.014764  0  -0.01096  -0.038302  0  3.921902  0
C  C45  1  0.61784689  0.53591659  0.06823591  1  -0.010941  0  -0.095758  -0.176499  0  3.995984  0
C  C46  1  0.62158016  0.53278765  0.94053328  1  -0.0093  0  0.018398  0.141189  0  4.034925  0
C  C47  1  0.50319959  0.51456651  0.86763669  1  0.07479  0  -0.015627  -0.139826  0  3.867942  0
C  C48  1  0.38070705  0.05607027  0.46794922  1  -0.035678  0  -0.007072  0.053348  0  3.88662  0
C  C49  1  0.49159788  0.13274969  0.50226994  1  -0.019134  0  -0.011279  -0.067909  0  3.965573  0
C  C50  1  0.61095698  0.07455921  0.54173833  1  -0.066809  0  -0.087023  -0.105408  0  3.986538  0
N  N51  1  0.85565284  0.50262793  0.50284174  1  -1.218772  0  -0.294029  -0.152525  0  3.5441  0
N  N52  1  0.14690841  0.50859951  0.49651354  1  -1.251359  0  -0.308428  -0.308559  0  3.380254  0
N  N53  1  0.15182848  0.66085804  0.65196716  1  -1.258051  0  -0.562035  -0.606314  0  3.298219  0
N  N54  1  0.13653420  0.34634197  0.22328017  1  -1.132504  0  -0.628026  -0.632338  0  3.248639  0
N  N55  1  0.84195533  0.21249006  0.34758831  1  -1.129885  0  -0.644655  -0.640059  0  3.20969  0
N  N56  1  0.23520521  0.65409435  0.20664299  1  -1.214606  0  -0.597384  -0.610883  0  3.355266  0
Cl  Cl57  1  0.78238284  0.55352974  0.88479604  1  -0.212039  0  -0.00266  -0.081905  0  1.606572  0
O  O58  1  0.37616570  0.31856541  0.51396557  1  -1.16281  0  -0.315791  -0.536439  0  2.282721  0
O  O59  1  0.59870567  0.32185614  0.46792838  1  -1.173045  0  -0.309276  -0.549559  0  2.350352  0
O  O60  1  0.39808276  0.47149061  0.30569983  1  -1.179126  0  -0.312827  -0.560153  0  2.388939  0
O  O61  1  0.61671889  0.54045862  0.31799459  1  -1.168491  0  -0.314367  -0.5378  0  2.309637  0
O  O62  1  0.40356922  0.67938014  0.45870720  1  -1.181238  0  -0.317025  -0.559617  0  2.352233  0
O  O63  1  0.62027153  0.68687400  0.53845698  1  -1.160114  0  -0.31618  -0.543804  0  2.300872  0
O  O64  1  0.40373000  0.54701849  0.67050646  1  -1.186848  0  -0.313198  -0.569916  0  2.41021  0
O  O65  1  0.61093115  0.46705585  0.68215835  1  -1.153765  0  -0.311296  -0.540177  0  2.347346  0
