# generated using pymatgen
data_AlH18C24(NO)6
_symmetry_space_group_name_H-M   'P 1'
_cell_length_a   3.94094107
_cell_length_b   28.98126932
_cell_length_c   28.98131596
_cell_angle_alpha   119.99515122
_cell_angle_beta   89.99933384
_cell_angle_gamma   90.00093131
_symmetry_Int_Tables_number   1
_chemical_formula_structural   AlH18C24(NO)6
_chemical_formula_sum   'Al2 H36 C48 N12 O12'
_cell_volume   2866.73331752
_cell_formula_units_Z   2
loop_
 _symmetry_equiv_pos_site_id
 _symmetry_equiv_pos_as_xyz
  1  'x, y, z'
loop_
 _atom_site_type_symbol
 _atom_site_label
 _atom_site_symmetry_multiplicity
 _atom_site_fract_x
 _atom_site_fract_y
 _atom_site_fract_z
 _atom_site_occupancy
 _atom_site_pbe_bader_charge
 _atom_site_pbe_bader_spin_density
 _atom_site_pbe_cm5_charge
 _atom_site_pbe_ddec_charge
 _atom_site_pbe_ddec_spin_density
 _atom_site_pbe_ddec_sum_bond_order
 _atom_site_pbe_magmom
Al  Al0  1  0.99993735  0.50000570  0.49999139  1  2.501581  0  0.422323  1.589849  0  2.581279  0
Al  Al1  1  0.99995817  0.16665554  0.83334462  1  2.501586  0  0.422312  1.589525  0  2.581674  0
H  H2  1  0.22722654  0.17545592  0.69603687  1  0.054124  0  0.105583  0.126888  0  0.997783  0
H  H3  1  0.77253826  0.30394934  0.82454651  1  0.053763  0  0.105691  0.127132  0  0.997663  0
H  H4  1  0.77229844  0.36269098  0.50878677  1  0.053051  0  0.105663  0.126983  0  0.997482  0
H  H5  1  0.22741370  0.49123261  0.63730432  1  0.0532  0  0.105633  0.126987  0  0.997637  0
H  H6  1  0.22721352  0.02055337  0.82454663  1  0.091134  0  0.105613  0.127136  0  0.997437  0
H  H7  1  0.77247848  0.02058614  0.69604774  1  0.053555  0  0.105625  0.12692  0  0.997465  0
H  H8  1  0.77240643  0.64608829  0.63730251  1  0.052713  0  0.105633  0.126904  0  0.997538  0
H  H9  1  0.22744194  0.64609291  0.50877263  1  0.091616  0  0.105682  0.1271  0  0.997569  0
H  H10  1  0.22723435  0.30396610  0.97943095  1  0.053464  0  0.105644  0.126979  0  0.99763  0
H  H11  1  0.77254106  0.17545421  0.97942661  1  0.091448  0  0.105655  0.127013  0  0.997484  0
H  H12  1  0.77225758  0.49122682  0.35389080  1  0.089361  0  0.105671  0.127101  0  0.997458  0
H  H13  1  0.22742619  0.36269897  0.35392542  1  0.052294  0  0.105648  0.127084  0  0.997633  0
H  H14  1  0.82208126  0.38092927  0.75633944  1  0.42035  0  0.28919  0.281815  0  0.982725  0
H  H15  1  0.95608530  0.37692127  0.80971287  1  0.436503  0  0.30536  0.305825  0  0.93505  0
H  H16  1  0.17756715  0.24370989  0.61910160  1  0.420701  0  0.289157  0.281992  0  0.982936  0
H  H17  1  0.04357826  0.19032747  0.62309148  1  0.436404  0  0.305369  0.305937  0  0.934953  0
H  H18  1  0.17775670  0.42303082  0.71428674  1  0.419106  0  0.28924  0.281811  0  0.982816  0
H  H19  1  0.04389079  0.47641154  0.71028119  1  0.437096  0  0.305409  0.305747  0  0.935467  0
H  H20  1  0.82164552  0.28572257  0.57700721  1  0.419163  0  0.28902  0.281614  0  0.982685  0
H  H21  1  0.95562315  0.28971379  0.52362100  1  0.439276  0  0.305174  0.305781  0  0.935123  0
H  H22  1  0.82204003  0.87540921  0.61907168  1  0.425562  0  0.289138  0.281686  0  0.982988  0
H  H23  1  0.95603903  0.93279278  0.62308129  1  0.436359  0  0.305267  0.305785  0  0.935007  0
H  H24  1  0.17745333  0.87537609  0.75629379  1  0.423903  0  0.289278  0.282051  0  0.982942  0
H  H25  1  0.04350451  0.93274144  0.80967448  1  0.434012  0  0.305392  0.305892  0  0.935242  0
H  H26  1  0.17791139  0.79126827  0.57697664  1  0.424392  0  0.28918  0.281757  0  0.982843  0
H  H27  1  0.04402571  0.73389460  0.52359518  1  0.43416  0  0.305274  0.305839  0  0.935264  0
H  H28  1  0.82182911  0.79126687  0.71427247  1  0.425846  0  0.288961  0.281639  0  0.982573  0
H  H29  1  0.95580672  0.73388882  0.71027677  1  0.436916  0  0.305211  0.30574  0  0.935219  0
H  H30  1  0.82215320  0.24366203  0.12460221  1  0.424367  0  0.289183  0.281927  0  0.982665  0
H  H31  1  0.95610999  0.19028818  0.06722590  1  0.434063  0  0.305335  0.305746  0  0.935273  0
H  H32  1  0.17758136  0.38090239  0.12460855  1  0.424019  0  0.289223  0.281966  0  0.98295  0
H  H33  1  0.04359730  0.37691141  0.06723688  1  0.435943  0  0.30542  0.305979  0  0.934851  0
H  H34  1  0.17776857  0.28572792  0.20875091  1  0.42588  0  0.289114  0.281585  0  0.983079  0
H  H35  1  0.04388767  0.28972762  0.26613168  1  0.435477  0  0.30538  0.30572  0  0.935174  0
H  H36  1  0.82159457  0.42301381  0.20871090  1  0.424729  0  0.289113  0.281687  0  0.982643  0
H  H37  1  0.95556871  0.47639889  0.26608092  1  0.436214  0  0.305214  0.305787  0  0.934971  0
C  C38  1  0.49994556  0.45891402  0.41781382  1  1.544043  0  0.276795  0.651736  0  4.048572  0
C  C39  1  0.49992872  0.45892037  0.54109087  1  1.583046  0  0.27701  0.651975  0  4.048226  0
C  C40  1  0.49995593  0.58218397  0.54107726  1  1.544784  0  0.276758  0.652031  0  4.048257  0
C  C41  1  0.49995438  0.20773429  0.79223680  1  1.576905  0  0.277029  0.651992  0  4.048125  0
C  C42  1  0.49993732  0.08447451  0.79226937  1  1.545064  0  0.276537  0.651625  0  4.048194  0
C  C43  1  0.49994262  0.20776021  0.91552465  1  1.544639  0  0.276751  0.6518  0  4.048368  0
C  C44  1  0.49992913  0.23738671  0.76260105  1  -0.013024  0  -0.011251  0.007517  0  4.032698  0
C  C45  1  0.34887424  0.21425392  0.71228698  1  0.068168  0  -0.11204  -0.253996  0  3.980288  0
C  C46  1  0.35408613  0.24118304  0.68354934  1  0.374292  0  0.095776  0.270541  0  4.101795  0
C  C47  1  0.49990621  0.29301684  0.70700284  1  0.157155  0  -0.033126  -0.097669  0  4.075735  0
C  C48  1  0.64561971  0.31646428  0.75884123  1  0.375042  0  0.096048  0.271163  0  4.101335  0
C  C49  1  0.65091034  0.28770564  0.78574975  1  0.069403  0  -0.112277  -0.254708  0  3.980399  0
C  C50  1  0.49989605  0.32110393  0.67892274  1  -0.18963  0  -0.059107  -0.116637  0  4.201329  0
C  C51  1  0.49988809  0.34559000  0.65444779  1  -0.415052  0  -0.058983  -0.116533  0  4.201121  0
C  C52  1  0.49987793  0.37367788  0.62635930  1  0.154397  0  -0.032892  -0.097679  0  4.075859  0
C  C53  1  0.64541974  0.35020290  0.57451408  1  0.375341  0  0.095914  0.271174  0  4.101133  0
C  C54  1  0.65074586  0.37894845  0.54758967  1  0.070084  0  -0.112346  -0.25465  0  3.979416  0
C  C55  1  0.49990322  0.42927847  0.57073475  1  -0.013109  0  -0.011363  0.007415  0  4.032792  0
C  C56  1  0.34894142  0.45242808  0.62105531  1  0.068255  0  -0.112005  -0.254274  0  3.979733  0
C  C57  1  0.35422194  0.42551784  0.64981342  1  0.375041  0  0.096342  0.271699  0  4.101391  0
C  C58  1  0.49990708  0.02519310  0.76261436  1  0.027894  0  -0.01088  0.00871  0  4.031447  0
C  C59  1  0.34885990  0.99800921  0.78574716  1  0.06987  0  -0.112197  -0.255149  0  3.979796  0
C  C60  1  0.35406203  0.94235032  0.75882017  1  0.288327  0  0.09593  0.271014  0  4.101503  0
C  C61  1  0.49988775  0.91396970  0.70698605  1  0.219043  0  -0.032769  -0.096904  0  4.075598  0
C  C62  1  0.64559645  0.94236933  0.68353974  1  0.414917  0  0.095831  0.270804  0  4.101365  0
C  C63  1  0.65085116  0.99802661  0.71229354  1  -0.023017  0  -0.112278  -0.254803  0  3.979898  0
C  C64  1  0.49990839  0.85781599  0.67890603  1  -0.017746  0  -0.059092  -0.116838  0  4.201933  0
C  C65  1  0.49991915  0.80885107  0.65441926  1  -0.604409  0  -0.058936  -0.116556  0  4.200557  0
C  C66  1  0.49993217  0.75267903  0.62632927  1  0.218856  0  -0.033057  -0.097657  0  4.075863  0
C  C67  1  0.64551685  0.72430545  0.64980002  1  0.415118  0  0.095673  0.270951  0  4.101633  0
C  C68  1  0.65082053  0.66864043  0.62105121  1  -0.0228  0  -0.112266  -0.254653  0  3.979493  0
C  C69  1  0.49994303  0.64146493  0.57072306  1  0.027872  0  -0.011179  0.007784  0  4.032696  0
C  C70  1  0.34899155  0.66864034  0.54757618  1  0.068755  0  -0.112152  -0.254824  0  3.979597  0
C  C71  1  0.35429706  0.72430902  0.57449063  1  0.288843  0  0.096364  0.271902  0  4.100819  0
C  C72  1  0.49994482  0.23740126  0.97480475  1  0.027134  0  -0.011087  0.008068  0  4.032026  0
C  C73  1  0.34889467  0.28771752  0.00198047  1  -0.022496  0  -0.112112  -0.254265  0  3.979915  0
C  C74  1  0.35410382  0.31645431  0.05764294  1  0.432941  0  0.095724  0.270248  0  4.101565  0
C  C75  1  0.49990937  0.29300078  0.08602616  1  0.220022  0  -0.032929  -0.097162  0  4.07552  0
C  C76  1  0.64563657  0.24116211  0.05764106  1  0.290082  0  0.096133  0.271351  0  4.101206  0
C  C77  1  0.65091993  0.21425327  0.00197928  1  0.069916  0  -0.112169  -0.254742  0  3.979511  0
C  C78  1  0.49991412  0.32108192  0.14218488  1  -0.196934  0  -0.059124  -0.11687  0  4.201444  0
C  C79  1  0.49987832  0.34556518  0.19114702  1  -0.425329  0  -0.058921  -0.116404  0  4.20055  0
C  C80  1  0.49987293  0.37365324  0.24731744  1  0.220402  0  -0.033083  -0.09784  0  4.07617  0
C  C81  1  0.64538835  0.42550038  0.27568111  1  0.289585  0  0.096129  0.27158  0  4.10057  0
C  C82  1  0.65072428  0.45242189  0.33134678  1  0.072271  0  -0.112193  -0.254932  0  3.979092  0
C  C83  1  0.49990529  0.42927080  0.35853313  1  0.027688  0  -0.011261  0.007905  0  4.032518  0
C  C84  1  0.34895213  0.37895027  0.33136856  1  -0.023306  0  -0.112042  -0.254416  0  3.979961  0
C  C85  1  0.35421509  0.35019468  0.27570282  1  0.413477  0  0.09608  0.271095  0  4.102157  0
N  N86  1  0.76851886  0.36825157  0.78254272  1  -1.223231  0  -0.602641  -0.623776  0  3.302097  0
N  N87  1  0.23115398  0.21749733  0.63176430  1  -1.223519  0  -0.60265  -0.624037  0  3.302205  0
N  N88  1  0.23139300  0.44922773  0.70160385  1  -1.223089  0  -0.60303  -0.624086  0  3.302631  0
N  N89  1  0.76810660  0.29840714  0.55080736  1  -1.224579  0  -0.602354  -0.623649  0  3.302093  0
N  N90  1  0.76847083  0.91428713  0.63174947  1  -1.198846  0  -0.602488  -0.623599  0  3.302062  0
N  N91  1  0.23106111  0.91424447  0.78250404  1  -1.213882  0  -0.60298  -0.624331  0  3.302363  0
N  N92  1  0.23152673  0.75239333  0.55077920  1  -1.214365  0  -0.60282  -0.62417  0  3.302297  0
N  N93  1  0.76824625  0.75238323  0.70159070  1  -1.199781  0  -0.602088  -0.623435  0  3.302114  0
N  N94  1  0.76854402  0.21746069  0.08572702  1  -1.214792  0  -0.602774  -0.624048  0  3.302418  0
N  N95  1  0.23117068  0.36824092  0.08573648  1  -1.216936  0  -0.602788  -0.623973  0  3.302023  0
N  N96  1  0.23140998  0.29840568  0.24762675  1  -1.198414  0  -0.602681  -0.623503  0  3.302849  0
N  N97  1  0.76805422  0.44921239  0.24759224  1  -1.21737  0  -0.602639  -0.623898  0  3.3016  0
O  O98  1  0.73496665  0.55853746  0.55165358  1  -1.261528  0  -0.238375  -0.59501  0  2.366493  0
O  O99  1  0.73496923  0.49313603  0.44145053  1  -1.253528  0  -0.238431  -0.594812  0  2.366263  0
O  O100  1  0.73495436  0.44833952  0.50686831  1  -1.259907  0  -0.238463  -0.594944  0  2.366399  0
O  O101  1  0.26494844  0.55854480  0.50685153  1  -1.254201  0  -0.238504  -0.595122  0  2.366163  0
O  O102  1  0.26492296  0.49314550  0.55166853  1  -1.258947  0  -0.238652  -0.59525  0  2.366555  0
O  O103  1  0.26493431  0.44833533  0.44146259  1  -1.262081  0  -0.238503  -0.595177  0  2.366426  0
O  O104  1  0.73495897  0.17353591  0.89188698  1  -1.254205  0  -0.238389  -0.594862  0  2.366379  0
O  O105  1  0.73499159  0.21831469  0.82645864  1  -1.255804  0  -0.238473  -0.594933  0  2.366671  0
O  O106  1  0.73498185  0.10811944  0.78169000  1  -1.262287  0  -0.238221  -0.594758  0  2.366406  0
O  O107  1  0.26494176  0.21833720  0.89187325  1  -1.262124  0  -0.238581  -0.595167  0  2.366174  0
O  O108  1  0.26492256  0.10812017  0.82649668  1  -1.254592  0  -0.238532  -0.595129  0  2.365904  0
O  O109  1  0.26494296  0.17350882  0.78166066  1  -1.257146  0  -0.23863  -0.595156  0  2.36648  0
