# generated using pymatgen
data_ZnH12C18N2O5
_symmetry_space_group_name_H-M   'P 1'
_cell_length_a   11.51467829
_cell_length_b   11.95327396
_cell_length_c   20.03997094
_cell_angle_alpha   89.99992400
_cell_angle_beta   90.00038860
_cell_angle_gamma   102.34853564
_symmetry_Int_Tables_number   1
_chemical_formula_structural   ZnH12C18N2O5
_chemical_formula_sum   'Zn4 H48 C72 N8 O20'
_cell_volume   2694.45052948
_cell_formula_units_Z   4
loop_
 _symmetry_equiv_pos_site_id
 _symmetry_equiv_pos_as_xyz
  1  'x, y, z'
loop_
 _atom_site_type_symbol
 _atom_site_label
 _atom_site_symmetry_multiplicity
 _atom_site_fract_x
 _atom_site_fract_y
 _atom_site_fract_z
 _atom_site_occupancy
 _atom_site_pbe_bader_charge
 _atom_site_pbe_bader_spin_density
 _atom_site_pbe_cm5_charge
 _atom_site_pbe_ddec_charge
 _atom_site_pbe_ddec_spin_density
 _atom_site_pbe_ddec_sum_bond_order
 _atom_site_pbe_magmom
Zn  Zn0  1  0.50512723  0.91832621  0.91836723  1  1.316572  0  0.693145  0.835326  0  2.383731  0
Zn  Zn1  1  0.49487447  0.58167385  0.41836712  1  1.316511  0  0.693171  0.835338  0  2.383633  0
Zn  Zn2  1  0.49487067  0.08167356  0.08163329  1  1.316613  0  0.693156  0.835366  0  2.383709  0
Zn  Zn3  1  0.50512710  0.41832679  0.58163241  1  1.31658  0  0.693167  0.835365  0  2.383645  0
H  H4  1  0.53114650  0.14265449  0.63063463  1  0.651319  0  0.295936  0.358655  0  0.987471  0
H  H5  1  0.53413590  0.67244597  0.68314499  1  0.105479  0  0.10187  0.116866  0  1.028209  0
H  H6  1  0.52710971  0.02543169  0.72236833  1  0.129637  0  0.104873  0.133325  0  1.02759  0
H  H7  1  0.87891741  0.73766661  0.94529622  1  0.090262  0  0.111387  0.1163  0  1.000063  0
H  H8  1  0.95731776  0.09784007  0.89272867  1  0.063275  0  0.109896  0.113188  0  1.006205  0
H  H9  1  0.53745688  0.90777387  0.51911523  1  0.107185  0  0.103988  0.133429  0  1.029598  0
H  H10  1  0.27076425  0.74972822  0.94319273  1  0.119035  0  0.126609  0.103539  0  0.975696  0
H  H11  1  0.34144998  0.09183028  0.89039464  1  0.120256  0  0.122199  0.094487  0  1.010065  0
H  H12  1  0.05339649  0.73774425  0.94255907  1  0.058599  0  0.110998  0.114907  0  1.004966  0
H  H13  1  0.66719014  0.74692644  0.94950189  1  0.139152  0  0.124043  0.104615  0  1.019863  0
H  H14  1  0.12926695  0.09771178  0.88994262  1  0.074409  0  0.111218  0.114404  0  1.003089  0
H  H15  1  0.74087782  0.08985843  0.89844633  1  0.133557  0  0.123661  0.103293  0  0.991051  0
H  H16  1  0.46885358  0.35734588  0.13063370  1  0.651269  0  0.295928  0.358654  0  0.987478  0
H  H17  1  0.46586718  0.82755323  0.18314457  1  0.105455  0  0.101849  0.116854  0  1.028225  0
H  H18  1  0.47288953  0.47456781  0.22236733  1  0.12966  0  0.104884  0.133328  0  1.027564  0
H  H19  1  0.12108671  0.76233518  0.44529550  1  0.090366  0  0.111353  0.116247  0  1.000121  0
H  H20  1  0.04268299  0.40216117  0.39273054  1  0.063642  0  0.109889  0.113182  0  1.006232  0
H  H21  1  0.46254550  0.59222702  0.01911398  1  0.107141  0  0.104007  0.133434  0  1.029543  0
H  H22  1  0.72923545  0.75026926  0.44319090  1  0.119083  0  0.126644  0.103582  0  0.975671  0
H  H23  1  0.65854877  0.40816582  0.39039491  1  0.120212  0  0.122182  0.09447  0  1.010047  0
H  H24  1  0.94660289  0.76225579  0.44255709  1  0.058621  0  0.111  0.114922  0  1.004986  0
H  H25  1  0.33281384  0.75307450  0.44950301  1  0.139112  0  0.124052  0.104632  0  1.0199  0
H  H26  1  0.87073427  0.40228776  0.38994323  1  0.074374  0  0.111234  0.114486  0  1.003206  0
H  H27  1  0.25912089  0.41014108  0.39844803  1  0.133103  0  0.12365  0.103279  0  0.991052  0
H  H28  1  0.46885351  0.85734700  0.36936539  1  0.651327  0  0.295928  0.358626  0  0.98746  0
H  H29  1  0.46586497  0.32755552  0.31685603  1  0.105461  0  0.101888  0.116916  0  1.028199  0
H  H30  1  0.47289135  0.97457066  0.27763169  1  0.129657  0  0.10488  0.133317  0  1.027578  0
H  H31  1  0.12108259  0.26233488  0.05470381  1  0.090233  0  0.111377  0.116273  0  1.000067  0
H  H32  1  0.04268119  0.90216056  0.10726885  1  0.06363  0  0.109895  0.113186  0  1.006216  0
H  H33  1  0.46254052  0.09222759  0.48088480  1  0.10718  0  0.103999  0.133418  0  1.029611  0
H  H34  1  0.72923644  0.25027241  0.05680830  1  0.119037  0  0.126607  0.103547  0  0.975695  0
H  H35  1  0.65854879  0.90816949  0.10960639  1  0.120251  0  0.122204  0.094467  0  1.010058  0
H  H36  1  0.94660210  0.26225466  0.05744095  1  0.058615  0  0.111007  0.114911  0  1.004984  0
H  H37  1  0.33281018  0.25307249  0.05049713  1  0.139142  0  0.124039  0.104597  0  1.019871  0
H  H38  1  0.87073268  0.90228800  0.11005640  1  0.0744  0  0.111218  0.114412  0  1.00311  0
H  H39  1  0.25911989  0.91014047  0.10155170  1  0.132616  0  0.123669  0.103278  0  0.991083  0
H  H40  1  0.53114537  0.64265475  0.86936732  1  0.651275  0  0.295928  0.358635  0  0.987475  0
H  H41  1  0.53413333  0.17244655  0.81685645  1  0.105458  0  0.101858  0.116854  0  1.028244  0
H  H42  1  0.52710818  0.52543109  0.77763319  1  0.129683  0  0.104875  0.13331  0  1.027597  0
H  H43  1  0.87891622  0.23766376  0.55470502  1  0.09034  0  0.111368  0.116267  0  1.000104  0
H  H44  1  0.95731770  0.59783947  0.60726949  1  0.063366  0  0.109909  0.113225  0  1.006186  0
H  H45  1  0.53745537  0.40777447  0.98088655  1  0.107123  0  0.104008  0.13344  0  1.029551  0
H  H46  1  0.27076295  0.24972879  0.55680863  1  0.11905  0  0.126632  0.103551  0  0.975682  0
H  H47  1  0.34145155  0.59183311  0.60960312  1  0.120245  0  0.122174  0.094452  0  1.010076  0
H  H48  1  0.05339607  0.23774483  0.55744344  1  0.058618  0  0.110995  0.114923  0  1.004993  0
H  H49  1  0.66718927  0.24692530  0.55049851  1  0.139125  0  0.124047  0.104617  0  1.019906  0
H  H50  1  0.12926867  0.59771118  0.61005729  1  0.074389  0  0.111242  0.114493  0  1.003187  0
H  H51  1  0.74087875  0.58985869  0.60155149  1  0.133094  0  0.123642  0.103238  0  0.991059  0
C  C52  1  0.52970597  0.84662234  0.71015793  1  -0.019484  0  -0.028805  -0.02124  0  4.0209  0
C  C53  1  0.53653873  0.68680977  0.54780198  1  1.515192  0  0.214949  0.582746  0  4.19765  0
C  C54  1  0.94040768  0.91774815  0.91885811  1  -0.01781  0  0.010381  0.098298  0  3.98468  0
C  C55  1  0.53442553  0.75841016  0.66504862  1  -0.038598  0  -0.103155  -0.158685  0  3.986563  0
C  C56  1  0.53063732  0.95724309  0.68686893  1  -0.02117  0  -0.101615  -0.226495  0  3.91779  0
C  C57  1  0.85461667  0.81900218  0.93476768  1  -0.026021  0  -0.080135  -0.171298  0  3.935025  0
C  C58  1  0.89772653  0.01716791  0.90554947  1  -0.038538  0  -0.082428  -0.175833  0  3.956043  0
C  C59  1  0.52209388  0.82313083  0.78408966  1  1.556001  0  0.206027  0.589785  0  4.206576  0
C  C60  1  0.53532651  0.98074838  0.61816025  1  0.495918  0  0.075613  0.323852  0  4.096364  0
C  C61  1  0.53741877  0.78167405  0.59637986  1  -0.030009  0  -0.037629  -0.053185  0  4.072031  0
C  C62  1  0.06911326  0.91782785  0.91702806  1  -0.072409  0  0.011554  0.099611  0  3.982552  0
C  C63  1  0.53748205  0.89202218  0.57270862  1  -0.036168  0  -0.104173  -0.220427  0  3.91393  0
C  C64  1  0.23456430  0.82455848  0.93137524  1  0.522407  0  0.053809  0.099499  0  3.946317  0
C  C65  1  0.27461084  0.01534683  0.90256821  1  0.497838  0  0.056801  0.111547  0  3.92353  0
C  C66  1  0.11281055  0.81920367  0.93109457  1  -0.025876  0  -0.082131  -0.178997  0  3.955568  0
C  C67  1  0.73482170  0.82295940  0.93732882  1  0.475964  0  0.055827  0.103789  0  3.923728  0
C  C68  1  0.15442513  0.01734229  0.90194372  1  -0.002918  0  -0.078088  -0.167827  0  3.936734  0
C  C69  1  0.77662221  0.01424266  0.90870043  1  0.509209  0  0.051796  0.101671  0  3.941696  0
C  C70  1  0.47029625  0.65337942  0.21015866  1  -0.019436  0  -0.028807  -0.021268  0  4.020721  0
C  C71  1  0.46345772  0.81319023  0.04780206  1  1.515181  0  0.214963  0.582855  0  4.197539  0
C  C72  1  0.05959439  0.58225363  0.41885828  1  -0.017928  0  0.010359  0.09815  0  3.98486  0
C  C73  1  0.46557423  0.74159072  0.16504827  1  -0.038555  0  -0.103165  -0.158692  0  3.986469  0
C  C74  1  0.46936357  0.54275780  0.18686775  1  -0.021344  0  -0.101596  -0.226439  0  3.917614  0
C  C75  1  0.14538559  0.68099960  0.43476812  1  -0.026009  0  -0.080044  -0.171086  0  3.935068  0
C  C76  1  0.10227488  0.48283162  0.40555050  1  -0.038831  0  -0.082412  -0.175808  0  3.956114  0
C  C77  1  0.47790853  0.67687180  0.28408791  1  1.556162  0  0.205998  0.589853  0  4.206485  0
C  C78  1  0.46467407  0.51925080  0.11815856  1  0.496134  0  0.075624  0.323816  0  4.096339  0
C  C79  1  0.46257931  0.71832682  0.09637851  1  -0.029928  0  -0.037627  -0.053235  0  4.071995  0
C  C80  1  0.93088737  0.58217135  0.41702815  1  -0.072399  0  0.011519  0.099631  0  3.982483  0
C  C81  1  0.46251556  0.60797783  0.07270686  1  -0.03641  0  -0.104179  -0.220397  0  3.91371  0
C  C82  1  0.76543700  0.67543902  0.43137461  1  0.522448  0  0.053752  0.099457  0  3.946395  0
C  C83  1  0.72538998  0.48465013  0.40256668  1  0.498021  0  0.05683  0.11163  0  3.923289  0
C  C84  1  0.88719006  0.68079467  0.43109491  1  -0.025883  0  -0.082107  -0.178992  0  3.95567  0
C  C85  1  0.26518109  0.67704067  0.43732973  1  0.475971  0  0.055786  0.103673  0  3.923808  0
C  C86  1  0.84557723  0.48265384  0.40194317  1  -0.002975  0  -0.07804  -0.167927  0  3.936746  0
C  C87  1  0.22337942  0.48575773  0.40870194  1  0.509668  0  0.051758  0.101616  0  3.941772  0
C  C88  1  0.47029335  0.15338000  0.28984160  1  -0.019459  0  -0.02878  -0.021234  0  4.020782  0
C  C89  1  0.46346110  0.31319086  0.45219755  1  1.51517  0  0.214945  0.582743  0  4.197691  0
C  C90  1  0.05959320  0.08225335  0.08114092  1  -0.017888  0  0.010366  0.098187  0  3.984799  0
C  C91  1  0.46557379  0.24159217  0.33495190  1  -0.038278  0  -0.103245  -0.158816  0  3.986536  0
C  C92  1  0.46936163  0.04275753  0.31313109  1  -0.02146  0  -0.101605  -0.226437  0  3.917713  0
C  C93  1  0.14538333  0.18099931  0.06523135  1  -0.025923  0  -0.080101  -0.171194  0  3.935077  0
C  C94  1  0.10227311  0.98283186  0.09444856  1  -0.038895  0  -0.08239  -0.175775  0  3.956066  0
C  C95  1  0.47790476  0.17687236  0.21591136  1  1.555713  0  0.206049  0.58987  0  4.206625  0
C  C96  1  0.46467245  0.01925225  0.38183978  1  0.495891  0  0.075609  0.323799  0  4.096322  0
C  C97  1  0.46258037  0.21832743  0.40362116  1  -0.030025  0  -0.037664  -0.053252  0  4.072036  0
C  C98  1  0.93088551  0.08217192  0.08297097  1  -0.072398  0  0.011527  0.099602  0  3.982504  0
C  C99  1  0.46251708  0.10797930  0.42729140  1  -0.036141  0  -0.104147  -0.22034  0  3.913861  0
C  C100  1  0.76543516  0.17544044  0.06862578  1  0.522426  0  0.053821  0.099472  0  3.946329  0
C  C101  1  0.72538880  0.98465294  0.09743282  1  0.497977  0  0.056814  0.111607  0  3.923499  0
C  C102  1  0.88718909  0.18079610  0.06890496  1  -0.02589  0  -0.082154  -0.17899  0  3.955538  0
C  C103  1  0.26517812  0.17704123  0.06266920  1  0.475941  0  0.055837  0.103778  0  3.923678  0
C  C104  1  0.84557519  0.98265664  0.09805631  1  -0.002926  0  -0.078074  -0.167831  0  3.936702  0
C  C105  1  0.22337743  0.98575711  0.09129760  1  0.510264  0  0.051766  0.101618  0  3.941748  0
C  C106  1  0.52970513  0.34662036  0.78984187  1  -0.019559  0  -0.028827  -0.021292  0  4.020768  0
C  C107  1  0.53653931  0.18680953  0.95219747  1  1.515173  0  0.214964  0.58288  0  4.197517  0
C  C108  1  0.94040680  0.41774530  0.58114224  1  -0.017796  0  0.010398  0.09826  0  3.984826  0
C  C109  1  0.53442628  0.25840906  0.83495225  1  -0.038572  0  -0.103182  -0.158725  0  3.986492  0
C  C110  1  0.53063607  0.45724197  0.81313278  1  -0.021202  0  -0.101586  -0.226424  0  3.917644  0
C  C111  1  0.85461560  0.31899933  0.56523340  1  -0.026159  0  -0.080086  -0.171173  0  3.935137  0
C  C112  1  0.89772526  0.51716644  0.59445002  1  -0.038552  0  -0.08248  -0.175946  0  3.956124  0
C  C113  1  0.52209477  0.32312886  0.71591211  1  1.55616  0  0.206018  0.58982  0  4.206572  0
C  C114  1  0.53532557  0.48074897  0.88184196  1  0.49605  0  0.075649  0.323845  0  4.09628  0
C  C115  1  0.53741859  0.28167294  0.90362201  1  -0.029941  0  -0.037614  -0.053178  0  4.071996  0
C  C116  1  0.06911277  0.41782672  0.58297188  1  -0.072407  0  0.011519  0.099589  0  3.982623  0
C  C117  1  0.53748408  0.39202194  0.92729366  1  -0.036429  0  -0.104168  -0.2204  0  3.913712  0
C  C118  1  0.23456314  0.32455905  0.56862491  1  0.522412  0  0.05378  0.099541  0  3.946342  0
C  C119  1  0.27461016  0.51534793  0.59743184  1  0.4979  0  0.056845  0.111685  0  3.923364  0
C  C120  1  0.11281008  0.31920340  0.56890561  1  -0.025925  0  -0.082146  -0.179053  0  3.955727  0
C  C121  1  0.73482079  0.32295741  0.56267129  1  0.475939  0  0.055808  0.103717  0  3.923788  0
C  C122  1  0.15442204  0.51734423  0.59805686  1  -0.002943  0  -0.078032  -0.167884  0  3.936739  0
C  C123  1  0.77662072  0.51424034  0.59129808  1  0.509723  0  0.051852  0.101761  0  3.941671  0
N  N124  1  0.31499648  0.92117514  0.91795319  1  -1.216059  0  -0.307935  -0.217665  0  3.498902  0
N  N125  1  0.69591789  0.91922725  0.92472889  1  -1.212249  0  -0.310047  -0.221876  0  3.494713  0
N  N126  1  0.68500205  0.57882234  0.41795332  1  -1.216188  0  -0.307982  -0.21772  0  3.4988  0
N  N127  1  0.30408370  0.58077195  0.42473103  1  -1.212312  0  -0.310023  -0.221778  0  3.494827  0
N  N128  1  0.68500334  0.07882549  0.08204783  1  -1.216206  0  -0.307969  -0.217705  0  3.498947  0
N  N129  1  0.30408001  0.08077251  0.07526913  1  -1.212342  0  -0.310061  -0.221811  0  3.494677  0
N  N130  1  0.31499859  0.42117402  0.58204521  1  -1.216036  0  -0.307972  -0.217794  0  3.498871  0
N  N131  1  0.69591817  0.41922613  0.57527000  1  -1.212281  0  -0.310081  -0.221842  0  3.494747  0
O  O132  1  0.53634388  0.08673855  0.59364160  1  -1.184356  0  -0.362703  -0.478344  0  2.347316  0
O  O133  1  0.54838068  0.59046837  0.57035696  1  -1.214164  0  -0.326618  -0.584996  0  2.470107  0
O  O134  1  0.50524825  0.90741701  0.82024534  1  -1.177544  0  -0.336786  -0.566601  0  2.37069  0
O  O135  1  0.53182852  0.72628701  0.80508177  1  -1.199287  0  -0.322699  -0.567986  0  2.207827  0
O  O136  1  0.52371656  0.70810519  0.48597301  1  -1.148545  0  -0.311646  -0.541674  0  2.392242  0
O  O137  1  0.46365645  0.41326096  0.09364060  1  -1.184351  0  -0.362746  -0.478375  0  2.347363  0
O  O138  1  0.45161728  0.90953335  0.07035542  1  -1.214204  0  -0.326624  -0.585078  0  2.470026  0
O  O139  1  0.49475160  0.59258389  0.32024521  1  -1.177508  0  -0.336726  -0.566587  0  2.370649  0
O  O140  1  0.46817203  0.77371389  0.30508040  1  -1.19931  0  -0.322708  -0.568022  0  2.207815  0
O  O141  1  0.47628457  0.79189658  0.98597162  1  -1.148617  0  -0.311643  -0.541682  0  2.392221  0
O  O142  1  0.46365507  0.91326208  0.40635893  1  -1.184348  0  -0.362702  -0.478312  0  2.347244  0
O  O143  1  0.45162107  0.40953313  0.42964256  1  -1.21421  0  -0.32661  -0.585011  0  2.470063  0
O  O144  1  0.49474883  0.09258702  0.17975468  1  -1.177482  0  -0.336738  -0.566604  0  2.370867  0
O  O145  1  0.46817310  0.27371790  0.19492075  1  -1.199093  0  -0.322763  -0.568072  0  2.207821  0
O  O146  1  0.47628239  0.29189544  0.51402751  1  -1.148572  0  -0.311619  -0.541615  0  2.392267  0
O  O147  1  0.53634301  0.58673796  0.90636042  1  -1.184276  0  -0.362738  -0.478345  0  2.347262  0
O  O148  1  0.54838044  0.09046555  0.92964510  1  -1.21419  0  -0.326635  -0.585095  0  2.469967  0
O  O149  1  0.50525238  0.40741592  0.67975481  1  -1.177523  0  -0.336745  -0.566614  0  2.370738  0
O  O150  1  0.53183040  0.22628676  0.69492012  1  -1.199314  0  -0.322705  -0.567984  0  2.207821  0
O  O151  1  0.52371246  0.20810317  0.01402841  1  -1.148608  0  -0.311644  -0.541717  0  2.392242  0
