# generated using pymatgen
data_ZnH8(C7O3)2
_symmetry_space_group_name_H-M   'P 1'
_cell_length_a   6.15079573
_cell_length_b   10.85883938
_cell_length_c   34.99385869
_cell_angle_alpha   91.22146576
_cell_angle_beta   97.46104339
_cell_angle_gamma   96.78258523
_symmetry_Int_Tables_number   1
_chemical_formula_structural   ZnH8(C7O3)2
_chemical_formula_sum   'Zn4 H32 C56 O24'
_cell_volume   2299.65474147
_cell_formula_units_Z   4
loop_
 _symmetry_equiv_pos_site_id
 _symmetry_equiv_pos_as_xyz
  1  'x, y, z'
loop_
 _atom_site_type_symbol
 _atom_site_label
 _atom_site_symmetry_multiplicity
 _atom_site_fract_x
 _atom_site_fract_y
 _atom_site_fract_z
 _atom_site_occupancy
 _atom_site_pbe_bader_charge
 _atom_site_pbe_bader_spin_density
 _atom_site_pbe_cm5_charge
 _atom_site_pbe_ddec_charge
 _atom_site_pbe_ddec_spin_density
 _atom_site_pbe_ddec_sum_bond_order
 _atom_site_pbe_magmom
Zn  Zn0  1  0.78845724  0.01752060  0.50729071  1  1.309477  0  0.707259  0.940765  0  2.227537  0
Zn  Zn1  1  0.34772727  0.98701081  0.49704518  1  1.287045  0  0.706221  0.920075  0  2.211121  0
Zn  Zn2  1  0.12091757  0.97886446  0.99250792  1  1.301662  0  0.706968  0.940747  0  2.22615  0
Zn  Zn3  1  0.56155631  0.00923828  0.00295383  1  1.285718  0  0.706191  0.919898  0  2.209855  0
H  H4  1  0.77756829  0.04536897  0.88627644  1  0.102614  0  0.10853  0.113942  0  1.003485  0
H  H5  1  0.76005325  0.05152767  0.81521775  1  0.094101  0  0.100263  0.101123  0  1.039207  0
H  H6  1  0.05111040  0.95942435  0.80405621  1  0.0693  0  0.100631  0.099564  0  1.056434  0
H  H7  1  0.07329530  0.95625423  0.87481720  1  0.080366  0  0.107065  0.111251  0  1.015306  0
H  H8  1  0.86001456  0.03803225  0.69584255  1  0.086973  0  0.100269  0.099506  0  1.056699  0
H  H9  1  0.15123048  0.94525495  0.68470942  1  0.084009  0  0.100548  0.102806  0  1.039716  0
H  H10  1  0.13364635  0.95156595  0.61365459  1  0.1212  0  0.108468  0.113489  0  1.004006  0
H  H11  1  0.83771069  0.04141090  0.62506516  1  0.092431  0  0.106418  0.110403  0  1.013866  0
H  H12  1  0.77737023  0.04278815  0.12973899  1  0.103795  0  0.105083  0.105577  0  1.025461  0
H  H13  1  0.75703748  0.04369110  0.20036618  1  0.09057  0  0.100135  0.100621  0  1.045045  0
H  H14  1  0.04843704  0.96513350  0.17717209  1  0.055498  0  0.102736  0.100326  0  1.035187  0
H  H15  1  0.07142163  0.96438916  0.10692876  1  0.11073  0  0.10801  0.116621  0  1.004844  0
H  H16  1  0.85708991  0.02875199  0.32248138  1  0.055758  0  0.102828  0.100149  0  1.035501  0
H  H17  1  0.14817150  0.95104009  0.29979028  1  0.097446  0  0.100156  0.100384  0  1.044971  0
H  H18  1  0.12971540  0.95221987  0.37050934  1  0.103901  0  0.105032  0.105673  0  1.025298  0
H  H19  1  0.83586501  0.02984701  0.39279657  1  0.112432  0  0.108093  0.116174  0  1.005244  0
H  H20  1  0.35405915  0.72184912  0.55261439  1  0.077364  0  0.094428  0.102277  0  1.042163  0
H  H21  1  0.09782853  0.59587547  0.58837990  1  0.051998  0  0.096802  0.094299  0  0.996952  0
H  H22  1  0.35525935  0.26545848  0.55436899  1  0.0665  0  0.093139  0.103154  0  1.039752  0
H  H23  1  0.09823457  0.36505101  0.58928349  1  0.067052  0  0.09653  0.095317  0  0.995319  0
H  H24  1  0.55398199  0.73072266  0.94537289  1  0.04298  0  0.093088  0.102598  0  1.039538  0
H  H25  1  0.81089086  0.63085455  0.91048603  1  0.039969  0  0.096725  0.095782  0  0.995919  0
H  H26  1  0.55660329  0.27446673  0.94766636  1  0.106166  0  0.094482  0.102562  0  1.042558  0
H  H27  1  0.81210935  0.40010869  0.91167774  1  0.032385  0  0.096388  0.093223  0  0.998094  0
H  H28  1  0.11241724  0.08657904  0.76347913  1  0.618795  0  0.329056  0.357015  0  0.897307  0
H  H29  1  0.79900993  0.91047909  0.73641364  1  0.613727  0  0.329718  0.358723  0  0.895641  0
H  H30  1  0.13148434  0.10600411  0.22375302  1  0.619066  0  0.330358  0.356442  0  0.893094  0
H  H31  1  0.77318692  0.88804829  0.27614369  1  0.621833  0  0.330441  0.356686  0  0.893098  0
H  H32  1  0.99156643  0.32056811  0.48764900  1  0.65497  0  0.314974  0.360593  0  0.93922  0
H  H33  1  0.98833205  0.73542689  0.48504581  1  0.627078  0  0.311771  0.353237  0  0.950502  0
H  H34  1  0.92147813  0.26102342  0.01491703  1  0.64908  0  0.312106  0.353188  0  0.950506  0
H  H35  1  0.91761197  0.67574377  0.01212826  1  0.639975  0  0.315086  0.360737  0  0.938714  0
C  C36  1  0.65965484  0.77438467  0.50707492  1  1.492121  0  0.22451  0.627614  0  4.087021  0
C  C37  1  0.48107819  0.99919537  0.57242672  1  1.501367  0  0.220735  0.596619  0  4.136297  0
C  C38  1  0.65584453  0.24337657  0.50830584  1  1.494818  0  0.224047  0.626065  0  4.094988  0
C  C39  1  0.47673226  0.99317226  0.42821435  1  1.524243  0  0.221817  0.605366  0  4.120862  0
C  C40  1  0.25342402  0.75301759  0.99143207  1  1.490055  0  0.224255  0.626075  0  4.093497  0
C  C41  1  0.42961097  0.99805812  0.92751010  1  1.489665  0  0.221622  0.598175  0  4.135238  0
C  C42  1  0.25060047  0.22205194  0.99305276  1  1.472597  0  0.224264  0.627572  0  4.087124  0
C  C43  1  0.43151920  0.00208303  0.07173636  1  1.521453  0  0.222059  0.606634  0  4.121278  0
C  C44  1  0.42642134  0.00018380  0.88502819  1  0.025026  0  -0.018455  -0.040809  0  3.976008  0
C  C45  1  0.61959488  0.02596682  0.86785059  1  -0.076345  0  -0.077555  -0.081362  0  3.958065  0
C  C46  1  0.60913208  0.02913091  0.82795065  1  -0.019155  0  -0.088006  -0.11014  0  3.946379  0
C  C47  1  0.40474820  0.00652537  0.80385904  1  0.030596  0  -0.01081  0.044232  0  4.02439  0
C  C48  1  0.21153157  0.98101819  0.82163609  1  -0.070614  0  -0.099715  -0.153952  0  3.993064  0
C  C49  1  0.22257768  0.97773878  0.86140724  1  -0.012627  0  -0.080329  -0.070384  0  3.969733  0
C  C50  1  0.38061477  0.01222574  0.76174080  1  0.507172  0  0.058436  0.123904  0  4.024214  0
C  C51  1  0.53070666  0.98474083  0.73815898  1  0.424291  0  0.057885  0.123081  0  4.023781  0
C  C52  1  0.69960765  0.01632003  0.67826271  1  -0.113809  0  -0.098594  -0.152797  0  3.995942  0
C  C53  1  0.50646408  0.99051801  0.69604173  1  0.041909  0  -0.011687  0.043386  0  4.026648  0
C  C54  1  0.30207844  0.96781171  0.67196919  1  0.019459  0  -0.088178  -0.11311  0  3.949806  0
C  C55  1  0.29160420  0.97107075  0.63208060  1  -0.108113  0  -0.077079  -0.080162  0  3.95985  0
C  C56  1  0.48466245  0.99709142  0.61489648  1  0.002909  0  -0.01848  -0.0403  0  3.979405  0
C  C57  1  0.68854568  0.01973916  0.63849672  1  0.004412  0  -0.079812  -0.06964  0  3.970062  0
C  C58  1  0.42580299  0.00340610  0.11399060  1  -0.060118  0  -0.01854  -0.038517  0  3.968806  0
C  C59  1  0.61877199  0.02512624  0.14052714  1  -0.021897  0  -0.080243  -0.08346  0  3.971772  0
C  C60  1  0.60714772  0.02636442  0.17990644  1  -0.05554  0  -0.089778  -0.118189  0  3.967101  0
C  C61  1  0.40170602  0.00710691  0.19406226  1  0.024481  0  -0.010121  0.045511  0  4.033422  0
C  C62  1  0.20868067  0.98517020  0.16701068  1  -0.074036  0  -0.095927  -0.148085  0  3.994133  0
C  C63  1  0.22051629  0.98287980  0.12769608  1  -0.00279  0  -0.078165  -0.071624  0  3.962688  0
C  C64  1  0.37893986  0.01394598  0.23515663  1  0.487804  0  0.058455  0.121506  0  4.034844  0
C  C65  1  0.52571663  0.98012428  0.26474021  1  0.495331  0  0.058762  0.121992  0  4.033986  0
C  C66  1  0.69716928  0.00894798  0.33277134  1  -0.072897  0  -0.095676  -0.147843  0  3.992012  0
C  C67  1  0.50350742  0.98716172  0.30585793  1  0.023134  0  -0.010211  0.04502  0  4.031621  0
C  C68  1  0.29847624  0.96821561  0.32015587  1  -0.061014  0  -0.089451  -0.117461  0  3.965776  0
C  C69  1  0.28791504  0.96960645  0.35956964  1  -0.0707  0  -0.079956  -0.083618  0  3.971299  0
C  C70  1  0.48148648  0.99123521  0.38595659  1  -0.015242  0  -0.018856  -0.038234  0  3.970684  0
C  C71  1  0.68641552  0.01140715  0.37211246  1  0.001077  0  -0.078511  -0.071022  0  3.962127  0
C  C72  1  0.66616086  0.64026356  0.51219902  1  0.026763  0  -0.034051  -0.224173  0  3.957137  0
C  C73  1  0.50712672  0.56759980  0.53215439  1  -0.015693  0  -0.004625  0.075019  0  3.964872  0
C  C74  1  0.82942570  0.58458716  0.49643605  1  0.595964  0  0.09478  0.217417  0  4.047502  0
C  C75  1  0.35723841  0.62209305  0.55290102  1  0.015395  0  -0.100875  -0.131477  0  3.987745  0
C  C76  1  0.21270984  0.55105167  0.57310399  1  -0.076648  0  -0.104398  -0.097946  0  4.07309  0
C  C77  1  0.66512679  0.37942807  0.51306182  1  0.018657  0  -0.034118  -0.224474  0  3.963244  0
C  C78  1  0.82971153  0.45265352  0.49700377  1  0.54237  0  0.094957  0.219877  0  4.04912  0
C  C79  1  0.50701506  0.43564945  0.53260502  1  0.005694  0  -0.006957  0.07118  0  3.971055  0
C  C80  1  0.35763036  0.36561217  0.55387765  1  -0.030374  0  -0.104292  -0.143292  0  3.997768  0
C  C81  1  0.21307066  0.42170415  0.57363366  1  -0.051371  0  -0.103327  -0.092634  0  4.078011  0
C  C82  1  0.24451386  0.61698576  0.98680084  1  -0.017161  0  -0.03414  -0.224736  0  3.966093  0
C  C83  1  0.40274507  0.56071212  0.96730895  1  0.004772  0  -0.006782  0.070631  0  3.975144  0
C  C84  1  0.08016936  0.54377917  0.00292841  1  0.620163  0  0.09484  0.219009  0  4.051148  0
C  C85  1  0.55194428  0.63059745  0.94597042  1  0.062742  0  -0.104605  -0.141999  0  3.995466  0
C  C86  1  0.69647061  0.57434870  0.92624884  1  -0.089099  0  -0.10379  -0.094811  0  4.07686  0
C  C87  1  0.24417999  0.35618860  0.98790820  1  0.006023  0  -0.033876  -0.224524  0  3.960283  0
C  C88  1  0.08069613  0.41186912  0.00359525  1  0.58109  0  0.094812  0.217577  0  4.049036  0
C  C89  1  0.40303877  0.42879123  0.96791231  1  -0.01658  0  -0.004492  0.07623  0  3.963925  0
C  C90  1  0.55307807  0.37417776  0.94723952  1  0.004768  0  -0.101073  -0.132709  0  3.989044  0
C  C91  1  0.69722873  0.44503194  0.92692541  1  -0.052398  0  -0.103375  -0.094992  0  4.075408  0
O  O92  1  0.84918179  0.84440640  0.50672771  1  -1.144346  0  -0.319958  -0.564982  0  2.292267  0
O  O93  1  0.47668287  0.81806152  0.50268487  1  -1.170868  0  -0.296281  -0.538072  0  2.362253  0
O  O94  1  0.29172451  0.98773162  0.55084140  1  -1.142424  0  -0.314021  -0.534233  0  2.275012  0
O  O95  1  0.66703253  0.01129284  0.55978682  1  -1.179637  0  -0.311564  -0.564422  0  2.346894  0
O  O96  1  0.47116498  0.17602461  0.50318491  1  -1.161237  0  -0.303189  -0.54985  0  2.340944  0
O  O97  1  0.84471297  0.19815362  0.50867632  1  -1.145344  0  -0.314593  -0.550646  0  2.291012  0
O  O98  1  0.66168022  0.00755361  0.44971099  1  -1.184667  0  -0.314608  -0.573033  0  2.367198  0
O  O99  1  0.28745554  0.98037019  0.44114239  1  -1.115732  0  -0.316757  -0.52552  0  2.228613  0
O  O100  1  0.06450145  0.79821552  0.99094683  1  -1.132782  0  -0.314763  -0.550395  0  2.289987  0
O  O101  1  0.43807888  0.82042251  0.99656513  1  -1.175666  0  -0.303405  -0.54958  0  2.340295  0
O  O102  1  0.61867852  0.00929767  0.94917500  1  -1.130275  0  -0.314572  -0.534983  0  2.273222  0
O  O103  1  0.24345216  0.98609830  0.94008272  1  -1.176922  0  -0.311537  -0.56536  0  2.348674  0
O  O104  1  0.43354228  0.17836954  0.99756968  1  -1.168432  0  -0.296461  -0.537753  0  2.361992  0
O  O105  1  0.06090319  0.15208217  0.99324949  1  -1.147492  0  -0.319282  -0.564288  0  2.292637  0
O  O106  1  0.24681741  0.98806507  0.05015390  1  -1.181813  0  -0.314563  -0.573733  0  2.366392  0
O  O107  1  0.62104230  0.01500736  0.05890217  1  -1.114332  0  -0.316988  -0.525885  0  2.228989  0
O  O108  1  0.18208139  0.04526987  0.74412106  1  -1.140481  0  -0.354837  -0.448703  0  2.379322  0
O  O109  1  0.72941140  0.95186809  0.75576522  1  -1.134871  0  -0.354932  -0.449594  0  2.377854  0
O  O110  1  0.18830340  0.05573332  0.24461871  1  -1.132386  0  -0.353758  -0.437354  0  2.352584  0
O  O111  1  0.71634290  0.93830415  0.25527529  1  -1.133918  0  -0.353655  -0.437657  0  2.353164  0
O  O112  1  0.99132684  0.40840686  0.48040499  1  -1.143161  0  -0.33513  -0.396598  0  2.303018  0
O  O113  1  0.99020081  0.64603523  0.47909631  1  -1.122443  0  -0.33658  -0.393582  0  2.315068  0
O  O114  1  0.91966112  0.35040199  0.02088011  1  -1.143208  0  -0.336823  -0.39341  0  2.313957  0
O  O115  1  0.91837134  0.58804403  0.01947355  1  -1.125622  0  -0.335065  -0.396512  0  2.305321  0
