# generated using pymatgen
data_Zn2H17C26(N4O)2
_symmetry_space_group_name_H-M   'P 1'
_cell_length_a   14.85820293
_cell_length_b   15.01251195
_cell_length_c   23.49598412
_cell_angle_alpha   87.69117227
_cell_angle_beta   89.96424065
_cell_angle_gamma   102.21805839
_symmetry_Int_Tables_number   1
_chemical_formula_structural   Zn2H17C26(N4O)2
_chemical_formula_sum   'Zn8 H68 C104 N32 O8'
_cell_volume   5117.89420669
_cell_formula_units_Z   4
loop_
 _symmetry_equiv_pos_site_id
 _symmetry_equiv_pos_as_xyz
  1  'x, y, z'
loop_
 _atom_site_type_symbol
 _atom_site_label
 _atom_site_symmetry_multiplicity
 _atom_site_fract_x
 _atom_site_fract_y
 _atom_site_fract_z
 _atom_site_occupancy
 _atom_site_pbe_bader_charge
 _atom_site_pbe_bader_spin_density
 _atom_site_pbe_cm5_charge
 _atom_site_pbe_ddec_charge
 _atom_site_pbe_ddec_spin_density
 _atom_site_pbe_ddec_sum_bond_order
 _atom_site_pbe_magmom
Zn  Zn0  1  0.41797501  0.58908785  0.43720821  1  1.182639  0  0.745878  0.598605  0  2.518122  0
Zn  Zn1  1  0.53681456  0.43056259  0.44257511  1  1.187198  0  0.741656  0.601322  0  2.492587  0
Zn  Zn2  1  0.93137493  0.07530162  0.92157462  1  1.186704  0  0.742856  0.602783  0  2.482871  0
Zn  Zn3  1  0.08547443  0.94620308  0.92720841  1  1.183332  0  0.743467  0.593576  0  2.529067  0
Zn  Zn4  1  0.52982624  0.41539885  0.58342829  1  1.232371  0  0.734684  0.66927  0  2.358591  0
Zn  Zn5  1  0.42062302  0.59394124  0.57903733  1  1.210163  0  0.746277  0.632464  0  2.430226  0
Zn  Zn6  1  0.08511772  0.92659967  0.06639703  1  1.211847  0  0.737307  0.635343  0  2.382479  0
Zn  Zn7  1  0.92697921  0.06135449  0.06106928  1  1.230163  0  0.724495  0.638768  0  2.425425  0
H  H8  1  0.31745306  0.54560562  0.30814292  1  0.070444  0  0.117039  0.107036  0  0.993574  0
H  H9  1  0.73532699  0.55216063  0.41969131  1  0.079453  0  0.115213  0.102522  0  1.023356  0
H  H10  1  0.84393151  0.01895721  0.79581781  1  0.078946  0  0.11832  0.106448  0  0.99497  0
H  H11  1  0.27104748  0.10391587  0.93174586  1  0.093611  0  0.117786  0.105926  0  1.001451  0
H  H12  1  0.91132684  0.54729742  0.59448206  1  0.051176  0  0.093725  0.103701  0  0.980962  0
H  H13  1  0.06660785  0.46306966  0.64445231  1  0.017494  0  0.089542  0.092225  0  0.993803  0
H  H14  1  0.43697911  0.95150476  0.10103113  1  0.053439  0  0.088923  0.092673  0  1.013599  0
H  H15  1  0.59136613  0.85288515  0.13364174  1  0.041948  0  0.094075  0.103056  0  0.982128  0
H  H16  1  0.89642504  0.44718222  0.63969703  1  0.078993  0  0.085879  0.095395  0  1.011107  0
H  H17  1  0.08236766  0.56444225  0.59975386  1  0.072511  0  0.091814  0.097089  0  0.989896  0
H  H18  1  0.42040857  0.83808900  0.13297032  1  0.01174  0  0.085686  0.084137  0  1.000488  0
H  H19  1  0.60547436  0.96562127  0.10283225  1  0.034961  0  0.088905  0.092824  0  0.999154  0
H  H20  1  0.25994939  0.49926584  0.81725017  1  0.120813  0  0.099958  0.11145  0  1.015994  0
H  H21  1  0.79159559  0.62061301  0.72664570  1  0.124504  0  0.099808  0.115117  0  1.051852  0
H  H22  1  0.82107915  0.95405670  0.30020341  1  0.11332  0  0.101085  0.10725  0  1.002093  0
H  H23  1  0.23195703  0.14424354  0.22363083  1  0.035507  0  0.099324  0.098899  0  1.00079  0
H  H24  1  0.73493350  0.87033921  0.38226421  1  0.045566  0  0.099944  0.100264  0  0.996813  0
H  H25  1  0.31334342  0.23956163  0.29811866  1  0.024848  0  0.096018  0.092709  0  1.013392  0
H  H26  1  0.17974413  0.39810003  0.89485153  1  0.044385  0  0.100047  0.101198  0  1.000236  0
H  H27  1  0.89100887  0.72758607  0.78777252  1  0.035427  0  0.096795  0.094045  0  1.01249  0
H  H28  1  0.78983419  0.61887596  0.32314227  1  0.041444  0  0.09763  0.097771  0  1.004797  0
H  H29  1  0.31930265  0.48022348  0.19084736  1  0.033983  0  0.098575  0.098639  0  1.001118  0
H  H30  1  0.36992933  0.22007310  0.87728406  1  0.034811  0  0.098621  0.099584  0  1.004459  0
H  H31  1  0.84187205  0.95384637  0.68293678  1  0.030775  0  0.099482  0.10094  0  0.998565  0
H  H32  1  0.45059647  0.32228929  0.80114484  1  0.049056  0  0.094055  0.089062  0  1.015703  0
H  H33  1  0.74084131  0.84726095  0.62196520  1  0.049733  0  0.099699  0.098144  0  1.007577  0
H  H34  1  0.87757448  0.70295443  0.24182258  1  0.038271  0  0.095318  0.092312  0  1.010542  0
H  H35  1  0.23757524  0.38429975  0.11573318  1  0.068094  0  0.102568  0.104646  0  0.993277  0
H  H36  1  0.26447554  0.90590070  0.58790289  1  0.04705  0  0.096037  0.094675  0  1.00554  0
H  H37  1  0.27326670  0.07141989  0.59060811  1  0.047211  0  0.098455  0.098749  0  1.00159  0
H  H38  1  0.88062535  0.41822820  0.08312654  1  0.039052  0  0.095127  0.093313  0  1.010532  0
H  H39  1  0.90107158  0.58366920  0.08426573  1  0.064822  0  0.095825  0.094408  0  1.010367  0
H  H40  1  0.41796321  0.32435540  0.70657765  1  0.054242  0  0.112076  0.099027  0  1.006883  0
H  H41  1  0.60810175  0.75963645  0.59378405  1  0.080371  0  0.123083  0.114249  0  0.992341  0
H  H42  1  0.01815945  0.81010872  0.19835735  1  0.084239  0  0.119139  0.11007  0  0.995006  0
H  H43  1  0.05704507  0.25230011  0.09407786  1  0.100597  0  0.118787  0.109772  0  1.007402  0
H  H44  1  0.37739634  0.25907807  0.41798003  1  0.058515  0  0.112664  0.09575  0  1.030543  0
H  H45  1  0.33250806  0.77590139  0.41093882  1  0.091726  0  0.117912  0.105214  0  0.998887  0
H  H46  1  0.94543117  0.75398243  0.90112948  1  0.049064  0  0.110687  0.092199  0  1.031715  0
H  H47  1  0.86800180  0.27839640  0.89747729  1  0.090135  0  0.115839  0.103232  0  1.001117  0
H  H48  1  0.38077424  0.22050300  0.60162896  1  0.060783  0  0.115322  0.101767  0  1.004173  0
H  H49  1  0.35998763  0.78751255  0.59395584  1  0.099511  0  0.111929  0.100281  0  1.025526  0
H  H50  1  0.93319128  0.74161125  0.08562921  1  0.095855  0  0.111209  0.095914  0  1.023421  0
H  H51  1  0.88070121  0.26404177  0.08153796  1  0.063044  0  0.112102  0.098084  0  1.011963  0
H  H52  1  0.23360183  0.44367370  0.41937150  1  0.098616  0  0.114258  0.101382  0  1.013108  0
H  H53  1  0.74007069  0.37039831  0.41126502  1  0.048791  0  0.114834  0.1033  0  0.998943  0
H  H54  1  0.74573696  0.91978302  0.89728709  1  0.097246  0  0.114352  0.101083  0  1.011091  0
H  H55  1  0.28490364  0.88028024  0.89874549  1  0.109975  0  0.117905  0.106373  0  0.998722  0
H  H56  1  0.06928756  0.33652312  0.43232500  1  0.032598  0  0.094642  0.097137  0  1.005083  0
H  H57  1  0.90230871  0.31722769  0.42791369  1  0.08978  0  0.093057  0.094964  0  1.00809  0
H  H58  1  0.58684734  0.80424871  0.90588527  1  0.040193  0  0.096727  0.09988  0  1.000924  0
H  H59  1  0.42005659  0.78715613  0.90568326  1  0.037263  0  0.096854  0.101531  0  1.004006  0
H  H60  1  0.35670334  0.10208312  0.41391014  1  0.052511  0  0.097314  0.096644  0  1.009448  0
H  H61  1  0.34813189  0.93782534  0.41141032  1  0.039452  0  0.097164  0.095631  0  1.007459  0
H  H62  1  0.86934698  0.59609933  0.90198072  1  0.050742  0  0.097308  0.097924  0  1.006317  0
H  H63  1  0.84974846  0.43043510  0.90075709  1  0.046918  0  0.096558  0.095391  0  1.007943  0
H  H64  1  0.22807224  0.45648230  0.60324059  1  0.096589  0  0.117617  0.107748  0  1.003291  0
H  H65  1  0.75006739  0.39267881  0.59369175  1  0.08436  0  0.106581  0.086182  0  1.062673  0
H  H66  1  0.75017404  0.89903240  0.08160690  1  0.076033  0  0.11501  0.101869  0  1.022852  0
H  H67  1  0.26771781  0.83490541  0.08156523  1  0.061938  0  0.113174  0.09686  0  1.022692  0
H  H68  1  0.38709873  0.74468667  0.70412972  1  0.623281  0  0.34066  0.377416  0  0.863329  0
H  H69  1  0.65165340  0.36144892  0.67889199  1  0.612263  0  0.356396  0.394982  0  0.833427  0
H  H70  1  0.76670804  0.09880811  0.13547784  1  0.614157  0  0.352005  0.393245  0  0.842633  0
H  H71  1  0.29849784  0.95038614  0.14281253  1  0.622951  0  0.333627  0.367799  0  0.891126  0
H  H72  1  0.47185826  0.33220974  0.32498917  1  0.099615  0  0.120087  0.108202  0  0.993077  0
H  H73  1  0.57747354  0.76402552  0.40930390  1  0.090068  0  0.117068  0.10586  0  1.000361  0
H  H74  1  0.04373639  0.84762499  0.80833000  1  0.072198  0  0.119881  0.108036  0  0.993324  0
H  H75  1  0.06416774  0.26878406  0.92206235  1  0.086516  0  0.115521  0.101954  0  1.020756  0
C  C76  1  0.36341911  0.50059213  0.31987927  1  0.419505  0  0.004866  -0.062144  0  3.998163  0
C  C77  1  0.68465684  0.59455698  0.42177478  1  0.402643  0  0.006342  -0.044671  0  3.948421  0
C  C78  1  0.90076952  0.98616356  0.80603753  1  0.402629  0  0.005062  -0.05847  0  3.998647  0
C  C79  1  0.20962319  0.13230756  0.93195740  1  0.375146  0  0.009667  -0.041597  0  3.945462  0
C  C80  1  0.38539548  0.45054125  0.74221189  1  -0.048768  0  -0.016739  -0.024424  0  4.005757  0
C  C81  1  0.68628234  0.66359273  0.63759520  1  0.063812  0  -0.008863  -0.015391  0  3.978076  0
C  C82  1  0.90195030  0.88142974  0.21321384  1  0.044015  0  -0.01608  -0.023221  0  4.025656  0
C  C83  1  0.17900908  0.19511808  0.12212861  1  0.04539  0  -0.01662  -0.031686  0  4.018755  0
C  C84  1  0.35541313  0.19870315  0.50794122  1  -0.027329  0  -0.036838  -0.041696  0  4.076559  0
C  C85  1  0.33097387  0.81891196  0.50188637  1  0.065333  0  -0.038786  -0.042286  0  4.106772  0
C  C86  1  0.92070001  0.70420380  0.99317294  1  -0.015838  0  -0.036491  -0.041415  0  4.064313  0
C  C87  1  0.86949822  0.31352688  0.99018658  1  -0.006853  0  -0.039242  -0.04189  0  4.095794  0
C  C88  1  0.18733289  0.43299039  0.51147150  1  0.03109  0  -0.034586  -0.028729  0  4.080103  0
C  C89  1  0.78738511  0.38128339  0.50261443  1  -0.005675  0  -0.039153  -0.029827  0  4.100318  0
C  C90  1  0.70651871  0.88589964  0.98986056  1  0.002929  0  -0.034932  -0.030772  0  4.080995  0
C  C91  1  0.31438265  0.84446692  0.99008923  1  0.049008  0  -0.0372  -0.031278  0  4.106232  0
C  C92  1  0.03427483  0.43760561  0.55301848  1  -0.088121  0  -0.020248  0.017663  0  3.913393  0
C  C93  1  0.93907735  0.42755192  0.55021475  1  0.014405  0  -0.021329  0.016629  0  3.902118  0
C  C94  1  0.55637658  0.85779495  0.04111920  1  -0.060854  0  -0.018425  0.020681  0  3.899592  0
C  C95  1  0.46112767  0.84862609  0.04081495  1  -0.048081  0  -0.021972  0.014479  0  3.912077  0
C  C96  1  0.08687707  0.40813246  0.51117520  1  0.032144  0  -0.01494  0.032347  0  4.069005  0
C  C97  1  0.88635335  0.38585380  0.50539042  1  -0.009587  0  -0.01737  0.029278  0  4.075407  0
C  C98  1  0.60751284  0.84884541  0.99246784  1  -0.045833  0  -0.013773  0.032887  0  4.066956  0
C  C99  1  0.40784991  0.82904126  0.99214821  1  0.022098  0  -0.016894  0.030166  0  4.082828  0
C  C100  1  0.03412447  0.36338083  0.46642459  1  -0.059948  0  -0.102135  -0.145498  0  4.019302  0
C  C101  1  0.93830802  0.35265368  0.46372556  1  -0.070949  0  -0.104282  -0.149461  0  4.029073  0
C  C102  1  0.55291479  0.81783893  0.94485217  1  0.021877  0  -0.098795  -0.142036  0  4.013511  0
C  C103  1  0.45722937  0.80835277  0.94462104  1  -0.04369  0  -0.098803  -0.143395  0  4.015062  0
C  C104  1  0.93458193  0.48310622  0.60252846  1  -0.081631  0  -0.157314  -0.194297  0  3.879351  0
C  C105  1  0.04248455  0.49404044  0.60572773  1  -0.052398  0  -0.155616  -0.192963  0  3.899523  0
C  C106  1  0.45832352  0.88560809  0.09995329  1  -0.03897  0  -0.158115  -0.196599  0  3.89963  0
C  C107  1  0.56610858  0.89503857  0.10053433  1  -0.03894  0  -0.154372  -0.187152  0  3.88328  0
C  C108  1  0.28362660  0.43761715  0.83007308  1  -0.053719  0  -0.09052  -0.119551  0  3.977241  0
C  C109  1  0.80153260  0.69339125  0.71680204  1  -0.057081  0  -0.096004  -0.127638  0  3.976214  0
C  C110  1  0.81511492  0.88063991  0.30533007  1  -0.108864  0  -0.090639  -0.116345  0  3.989856  0
C  C111  1  0.25256549  0.21783739  0.21573793  1  -0.043305  0  -0.092366  -0.118716  0  4.004447  0
C  C112  1  0.76615273  0.83307822  0.35155886  1  0.058142  0  -0.094769  -0.133572  0  3.989282  0
C  C113  1  0.29836233  0.27152638  0.25769439  1  0.01619  0  -0.096922  -0.132802  0  4.01062  0
C  C114  1  0.23875656  0.38014985  0.87406368  1  -0.066506  0  -0.095001  -0.134654  0  3.987196  0
C  C115  1  0.85873632  0.75411029  0.75092787  1  -0.017705  0  -0.094867  -0.13061  0  4.003407  0
C  C116  1  0.75450286  0.73779989  0.35871298  1  -0.009708  0  -0.008808  0.088487  0  4.040475  0
C  C117  1  0.32329355  0.36703156  0.24983199  1  -0.08132  0  -0.01123  0.082352  0  4.051143  0
C  C118  1  0.26328498  0.29661567  0.88907887  1  0.002923  0  -0.009553  0.087038  0  4.040216  0
C  C119  1  0.87222266  0.84894256  0.74092094  1  0.014411  0  -0.010557  0.085906  0  4.056743  0
C  C120  1  0.41253191  0.39521725  0.70141222  1  0.448068  0  -6e-06  -0.067081  0  4.019761  0
C  C121  1  0.61974724  0.69148505  0.60255174  1  0.416418  0  0.014973  -0.052797  0  3.935437  0
C  C122  1  0.97808098  0.86015590  0.18570558  1  0.363945  0  0.004414  -0.074264  0  3.983039  0
C  C123  1  0.09573032  0.19847960  0.09512609  1  0.383766  0  0.009842  -0.055191  0  3.951655  0
C  C124  1  0.79894641  0.69291970  0.31936212  1  -0.047497  0  -0.096984  -0.134346  0  4.004411  0
C  C125  1  0.29923981  0.40642836  0.19835682  1  -0.076031  0  -0.095439  -0.135377  0  4.002366  0
C  C126  1  0.34489876  0.28114176  0.86466563  1  -0.0029  0  -0.099541  -0.139991  0  4.013741  0
C  C127  1  0.82939832  0.88068554  0.69320931  1  0.007122  0  -0.097764  -0.141118  0  4.013197  0
C  C128  1  0.39001014  0.33848766  0.82108311  1  -0.059593  0  -0.098361  -0.132427  0  4.021605  0
C  C129  1  0.77224986  0.82001240  0.65884257  1  -0.101675  0  -0.09341  -0.128537  0  3.999682  0
C  C130  1  0.84818982  0.74041252  0.27331743  1  -0.053147  0  -0.09696  -0.133887  0  4.01657  0
C  C131  1  0.25320612  0.35219247  0.15595753  1  0.02432  0  -0.091429  -0.128592  0  3.989531  0
C  C132  1  0.35581883  0.41379844  0.79946098  1  0.032429  0  -0.014958  0.073636  0  4.035567  0
C  C133  1  0.75475047  0.72494789  0.67068868  1  0.019291  0  -0.012535  0.07317  0  4.039953  0
C  C134  1  0.85532804  0.83497175  0.26444792  1  0.011123  0  -0.015968  0.072528  0  4.048671  0
C  C135  1  0.22968846  0.25679792  0.16371871  1  0.052844  0  -0.009249  0.083678  0  4.029566  0
C  C136  1  0.28528309  0.94905014  0.54962430  1  -0.074958  0  -0.099382  -0.137168  0  4.013357  0
C  C137  1  0.28995124  0.04251383  0.55106342  1  -0.034603  0  -0.09848  -0.13848  0  4.008711  0
C  C138  1  0.87793860  0.45651203  0.04292001  1  0.030607  0  -0.099688  -0.136077  0  4.015005  0
C  C139  1  0.88933894  0.55077306  0.04359007  1  -0.0841  0  -0.098071  -0.133011  0  4.006215  0
C  C140  1  0.32103262  0.10060634  0.50333850  1  0.011904  0  -0.012964  0.082539  0  4.047282  0
C  C141  1  0.31120617  0.91004433  0.50039681  1  0.006237  0  -0.016002  0.078545  0  4.065586  0
C  C142  1  0.89087958  0.60471093  0.99297977  1  0.011428  0  -0.011959  0.084422  0  4.039599  0
C  C143  1  0.86733444  0.41043523  0.99155117  1  -0.043449  0  -0.017771  0.074093  0  4.06202  0
C  C144  1  0.33441882  0.05944291  0.45211605  1  -0.058082  0  -0.096949  -0.131824  0  4.008979  0
C  C145  1  0.32977128  0.96633010  0.45068630  1  -0.043103  0  -0.098068  -0.135002  0  4.017979  0
C  C146  1  0.87255907  0.55782360  0.94213012  1  -0.044565  0  -0.096895  -0.13444  0  4.000675  0
C  C147  1  0.86132064  0.46342635  0.94143854  1  -0.042529  0  -0.098584  -0.134397  0  4.008496  0
C  C148  1  0.38735860  0.26360287  0.46361715  1  0.435576  0  0.007416  -0.049769  0  3.966226  0
C  C149  1  0.34401979  0.76539026  0.45610741  1  0.385489  0  0.006252  -0.057691  0  3.998226  0
C  C150  1  0.94912368  0.76562104  0.94645931  1  0.456367  0  0.005986  -0.044693  0  3.957377  0
C  C151  1  0.87208337  0.26028948  0.94247970  1  0.387112  0  0.001137  -0.064373  0  4.00335  0
C  C152  1  0.24487185  0.46012129  0.55810778  1  0.365217  0  0.008305  -0.042989  0  3.942068  0
C  C153  1  0.73045683  0.38798389  0.54939529  1  0.38847  0  -0.005397  -0.057437  0  4.016701  0
C  C154  1  0.76359801  0.91380563  0.03646234  1  0.424146  0  0.008354  -0.043839  0  3.954212  0
C  C155  1  0.25843450  0.85219862  0.03706659  1  0.424095  0  0.003071  -0.052375  0  4.002617  0
C  C156  1  0.38819750  0.24447612  0.55731569  1  0.458915  0  0.00849  -0.047206  0  3.968267  0
C  C157  1  0.35723938  0.77097116  0.54938585  1  0.368589  0  0.004069  -0.055997  0  3.995506  0
C  C158  1  0.94345329  0.75915743  0.04047010  1  0.399618  0  0.002629  -0.05072  0  3.967322  0
C  C159  1  0.87891964  0.25294583  0.03609909  1  0.390415  0  -0.002334  -0.064794  0  4.002824  0
C  C160  1  0.24771314  0.45238301  0.46439348  1  0.383116  0  0.005604  -0.04808  0  3.961352  0
C  C161  1  0.72672066  0.37535183  0.45637893  1  0.436525  0  -0.000916  -0.065336  0  3.999929  0
C  C162  1  0.76156111  0.92333654  0.94235665  1  0.420991  0  0.007192  -0.049202  0  3.959082  0
C  C163  1  0.26652741  0.87342855  0.94369158  1  0.364756  0  0.005347  -0.059116  0  3.991615  0
C  C164  1  0.38696289  0.53354600  0.71044207  1  0.466052  0  0.070081  -0.027638  0  3.988227  0
C  C165  1  0.66312128  0.56647588  0.63460004  1  0.407115  0  0.078508  -0.022988  0  3.952771  0
C  C166  1  0.88213487  0.95378785  0.17782007  1  0.42023  0  0.07029  -0.034622  0  4.014494  0
C  C167  1  0.19291516  0.10752038  0.10992797  1  0.425424  0  0.079803  -0.011057  0  3.98244  0
C  C168  1  0.44094651  0.39104329  0.32936075  1  0.394138  0  0.00523  -0.062597  0  4.008539  0
C  C169  1  0.60476710  0.70311395  0.41750782  1  0.389341  0  0.005036  -0.054209  0  3.976895  0
C  C170  1  0.00156175  0.89788741  0.81305451  1  0.393881  0  0.006033  -0.05917  0  4.003397  0
C  C171  1  0.10416294  0.21635375  0.92738769  1  0.394054  0  0.009052  -0.041127  0  3.956069  0
C  C172  1  0.37340786  0.41920669  0.29556053  1  0.018998  0  -0.036564  -0.040122  0  4.099429  0
C  C173  1  0.68909523  0.68415805  0.40011329  1  0.022802  0  -0.03582  -0.040455  0  4.073443  0
C  C174  1  0.92419341  0.90994458  0.78190608  1  0.020877  0  -0.037606  -0.042668  0  4.101402  0
C  C175  1  0.19921280  0.22222958  0.91943154  1  0.044892  0  -0.034916  -0.04196  0  4.056258  0
C  C176  1  0.37473866  0.62167978  0.72902225  1  1.436256  0  0.220875  0.551488  0  4.167642  0
C  C177  1  0.69129299  0.49116382  0.66569162  1  1.409085  0  0.237282  0.552332  0  4.099742  0
C  C178  1  0.80863693  0.00423039  0.17904879  1  1.426665  0  0.227548  0.548233  0  4.142221  0
C  C179  1  0.26999206  0.06562701  0.12669336  1  1.499792  0  0.229158  0.56234  0  4.143534  0
N  N180  1  0.41990677  0.51847158  0.36493108  1  -0.79129  0  -0.271684  -0.17472  0  3.534998  0
N  N181  1  0.60307276  0.56253510  0.44859681  1  -0.7835  0  -0.282949  -0.186342  0  3.571819  0
N  N182  1  0.95854701  0.01593658  0.84876005  1  -0.79019  0  -0.274279  -0.177815  0  3.535239  0
N  N183  1  0.12685621  0.07791861  0.94458035  1  -0.791422  0  -0.285444  -0.189934  0  3.625262  0
N  N184  1  0.42902356  0.43974698  0.65049665  1  -0.73735  0  -0.246608  -0.180062  0  3.50008  0
N  N185  1  0.56324863  0.61870985  0.58011589  1  -0.730689  0  -0.24851  -0.145437  0  3.54712  0
N  N186  1  0.00093961  0.91458772  0.13828087  1  -0.753604  0  -0.244424  -0.136091  0  3.543468  0
N  N187  1  0.06248136  0.11878067  0.06986560  1  -0.759386  0  -0.259353  -0.153841  0  3.588472  0
N  N188  1  0.43713491  0.34018017  0.48506472  1  -0.79961  0  -0.275319  -0.166733  0  3.605934  0
N  N189  1  0.37541774  0.69196234  0.47497973  1  -0.794205  0  -0.272147  -0.16677  0  3.564687  0
N  N190  1  0.98708768  0.84891829  0.96503386  1  -0.738308  0  -0.281648  -0.177772  0  3.615025  0
N  N191  1  0.88230955  0.17594826  0.95892530  1  -0.763168  0  -0.274364  -0.175662  0  3.557931  0
N  N192  1  0.33180596  0.49439918  0.53960810  1  -0.817152  0  -0.28221  -0.197066  0  3.6101  0
N  N193  1  0.64348306  0.38623615  0.53293763  1  -0.777129  0  -0.271101  -0.216546  0  3.502812  0
N  N194  1  0.84437885  0.96544971  0.01789521  1  -0.729847  0  -0.283532  -0.184228  0  3.635112  0
N  N195  1  0.18454118  0.88458888  0.02033447  1  -0.815683  0  -0.273115  -0.179287  0  3.551991  0
N  N196  1  0.43752463  0.32831535  0.54269603  1  -0.757143  0  -0.28092  -0.174354  0  3.649087  0
N  N197  1  0.38409178  0.69565991  0.53301818  1  -0.792079  0  -0.275767  -0.171809  0  3.574934  0
N  N198  1  0.98364470  0.84502123  0.02290433  1  -0.847151  0  -0.281  -0.194676  0  3.614122  0
N  N199  1  0.88682826  0.17134357  0.01723390  1  -0.801118  0  -0.269222  -0.186382  0  3.519432  0
N  N200  1  0.33326010  0.49010538  0.48188795  1  -0.765939  0  -0.290313  -0.193906  0  3.648798  0
N  N201  1  0.64129192  0.37855122  0.47487653  1  -0.800791  0  -0.283241  -0.182046  0  3.571126  0
N  N202  1  0.84321009  0.97132666  0.95997965  1  -0.850136  0  -0.281833  -0.177452  0  3.621966  0
N  N203  1  0.18943754  0.89728216  0.96214590  1  -0.774342  0  -0.276055  -0.169875  0  3.583131  0
N  N204  1  0.41308769  0.52419325  0.65549306  1  -0.737671  0  -0.257458  -0.179971  0  3.545262  0
N  N205  1  0.59086646  0.54368535  0.59861176  1  -0.711015  0  -0.259467  -0.172299  0  3.618949  0
N  N206  1  0.94252124  0.97148140  0.13318160  1  -0.707692  0  -0.243085  -0.183314  0  3.472424  0
N  N207  1  0.12170344  0.06288719  0.07876728  1  -0.730199  0  -0.25465  -0.180331  0  3.546695  0
N  N208  1  0.46843711  0.45033260  0.37044123  1  -0.796989  0  -0.276938  -0.17076  0  3.567695  0
N  N209  1  0.55371929  0.62948850  0.44563857  1  -0.793838  0  -0.290361  -0.19367  0  3.638181  0
N  N210  1  0.02192929  0.96121387  0.85269951  1  -0.801601  0  -0.277247  -0.172034  0  3.554325  0
N  N211  1  0.06205219  0.12979055  0.94159191  1  -0.79034  0  -0.286107  -0.190084  0  3.639088  0
O  O212  1  0.35244402  0.63949609  0.77673550  1  -1.139972  0  -0.296635  -0.485083  0  2.076003  0
O  O213  1  0.39405791  0.68894326  0.68594522  1  -1.132411  0  -0.349566  -0.51177  0  2.248638  0
O  O214  1  0.75805431  0.49013642  0.69572647  1  -1.124353  0  -0.270192  -0.45877  0  2.139874  0
O  O215  1  0.62649019  0.40922815  0.65911627  1  -1.103625  0  -0.334441  -0.49057  0  2.36249  0
O  O216  1  0.74125387  0.99216051  0.21030483  1  -1.111675  0  -0.281568  -0.464518  0  2.092373  0
O  O217  1  0.82216619  0.07335065  0.13608182  1  -1.113679  0  -0.339102  -0.503873  0  2.336908  0
O  O218  1  0.34988462  0.10473874  0.13305287  1  -1.125349  0  -0.288028  -0.469551  0  2.059863  0
O  O219  1  0.24172992  0.97255910  0.13603870  1  -1.142579  0  -0.343159  -0.503786  0  2.282804  0
