# generated using pymatgen
data_AlH15(C11O3)3
_symmetry_space_group_name_H-M   'P 1'
_cell_length_a   3.96488492
_cell_length_b   20.44137083
_cell_length_c   20.47878824
_cell_angle_alpha   60.03543516
_cell_angle_beta   87.21096745
_cell_angle_gamma   87.28321936
_symmetry_Int_Tables_number   1
_chemical_formula_structural   AlH15(C11O3)3
_chemical_formula_sum   'Al1 H15 C33 O9'
_cell_volume   1435.69094793
_cell_formula_units_Z   1
loop_
 _symmetry_equiv_pos_site_id
 _symmetry_equiv_pos_as_xyz
  1  'x, y, z'
loop_
 _atom_site_type_symbol
 _atom_site_label
 _atom_site_symmetry_multiplicity
 _atom_site_fract_x
 _atom_site_fract_y
 _atom_site_fract_z
 _atom_site_occupancy
 _atom_site_pbe_bader_charge
 _atom_site_pbe_bader_spin_density
 _atom_site_pbe_cm5_charge
 _atom_site_pbe_ddec_charge
 _atom_site_pbe_ddec_spin_density
 _atom_site_pbe_ddec_sum_bond_order
 _atom_site_pbe_magmom
Al  Al0  1  0.03059935  0.49946242  0.49985052  1  2.503851  0  0.424795  1.593771  0  2.576213  0
H  H1  1  0.81967069  0.30747450  0.70674569  1  0.098366  0  0.110146  0.115047  0  0.986138  0
H  H2  1  0.80657203  0.23549919  0.84745322  1  0.077068  0  0.101465  0.103002  0  0.997181  0
H  H3  1  0.23207781  0.70862566  0.30738515  1  0.084828  0  0.110358  0.114939  0  0.986465  0
H  H4  1  0.23257428  0.84971673  0.23529155  1  0.08421  0  0.108814  0.115275  0  0.980066  0
H  H5  1  0.26903846  0.30839501  0.48464100  1  0.114414  0  0.110601  0.115362  0  0.987083  0
H  H6  1  0.28672067  0.23614473  0.41574991  1  0.082068  0  0.109006  0.115281  0  0.982024  0
H  H7  1  0.78493497  0.70741783  0.48334009  1  0.098272  0  0.110035  0.115422  0  0.986511  0
H  H8  1  0.76709058  0.84827683  0.41465930  1  0.06897  0  0.101211  0.10279  0  0.997281  0
H  H9  1  0.20071235  0.48431798  0.70957519  1  0.111513  0  0.110425  0.114538  0  0.986793  0
H  H10  1  0.20600689  0.41567056  0.85043773  1  0.061955  0  0.10925  0.11675  0  0.979645  0
H  H11  1  0.87001744  0.48071307  0.30726243  1  0.108372  0  0.110023  0.114662  0  0.986162  0
H  H12  1  0.86982737  0.41197999  0.23514927  1  0.063528  0  0.101314  0.102897  0  0.997193  0
H  H13  1  0.52881618  0.02907618  0.33483281  1  0.618116  0  0.319727  0.34582  0  0.91439  0
H  H14  1  0.56087690  0.33532462  0.13431837  1  0.606227  0  0.319879  0.345854  0  0.914478  0
H  H15  1  0.47320445  0.13550755  0.02930136  1  0.5784  0  0.319888  0.346414  0  0.91314  0
C  C16  1  0.51683629  0.44180340  0.61615960  1  1.611871  0  0.27337  0.646732  0  4.071214  0
C  C17  1  0.55728039  0.44087528  0.44188674  1  1.540217  0  0.272617  0.646321  0  4.069657  0
C  C18  1  0.51720449  0.61588443  0.44138089  1  1.597225  0  0.272555  0.646831  0  4.072952  0
C  C19  1  0.68112768  0.32984084  0.73888270  1  0.02741  0  -0.078091  -0.081511  0  3.985241  0
C  C20  1  0.67415561  0.29000078  0.81709915  1  -0.103024  0  -0.085958  -0.136381  0  3.971322  0
C  C21  1  0.35279363  0.73986265  0.32968644  1  0.061278  0  -0.076769  -0.08204  0  3.982676  0
C  C22  1  0.35198489  0.81820692  0.28973701  1  -0.094581  0  -0.080277  -0.125442  0  3.939692  0
C  C23  1  0.40503517  0.32969516  0.43066268  1  -0.130879  0  -0.077219  -0.082829  0  3.986543  0
C  C24  1  0.41394258  0.28969766  0.39230785  1  0.01633  0  -0.080767  -0.126017  0  3.944984  0
C  C25  1  0.65912761  0.73921437  0.42971948  1  0.04819  0  -0.078544  -0.083224  0  3.98901  0
C  C26  1  0.64940406  0.81756319  0.39136525  1  -0.102981  0  -0.087371  -0.137619  0  3.973896  0
C  C27  1  0.33675410  0.43039374  0.74042635  1  -0.062074  0  -0.076885  -0.08252  0  3.986805  0
C  C28  1  0.33845607  0.39216283  0.81862765  1  -0.051714  0  -0.079862  -0.12557  0  3.941237  0
C  C29  1  0.73844378  0.42779448  0.32982742  1  -0.079123  0  -0.078242  -0.081575  0  3.98606  0
C  C30  1  0.73882824  0.38941164  0.28985649  1  0.005615  0  -0.086991  -0.137508  0  3.97003  0
C  C31  1  0.51059777  0.40001129  0.69991714  1  -0.046399  0  -0.011215  -0.044924  0  3.966948  0
C  C32  1  0.50573024  0.32097547  0.85823783  1  0.214354  0  0.000643  0.137877  0  4.120213  0
C  C33  1  0.50655109  0.28203652  0.93796430  1  -0.284508  0  -0.040639  -0.116006  0  4.095782  0
C  C34  1  0.50838935  0.25148994  0.00677412  1  -0.138332  0  -0.046635  -0.069082  0  4.176281  0
C  C35  1  0.51300973  0.21073780  0.08610371  1  0.097939  0  -0.041361  -0.142767  0  4.181378  0
C  C36  1  0.50895917  0.69969443  0.39956802  1  -0.057734  0  -0.010758  -0.044512  0  3.965701  0
C  C37  1  0.49856164  0.85835261  0.32031881  1  0.067952  0  0.001568  0.138237  0  4.124119  0
C  C38  1  0.49713081  0.93814308  0.27956173  1  -0.047071  0  -0.040147  -0.115558  0  4.096254  0
C  C39  1  0.49869854  0.00708132  0.24114740  1  -0.291864  0  -0.046181  -0.068037  0  4.173118  0
C  C40  1  0.50738115  0.08648492  0.20239094  1  0.113763  0  -0.041378  -0.141875  0  4.180355  0
C  C41  1  0.56851323  0.39877096  0.40008147  1  0.052075  0  -0.010774  -0.044775  0  3.965284  0
C  C42  1  0.57778566  0.31950108  0.32067414  1  0.101144  0  0.001825  0.13971  0  4.12233  0
C  C43  1  0.57507607  0.27933191  0.28108243  1  -0.156369  0  -0.040554  -0.117145  0  4.09518  0
C  C44  1  0.56086711  0.24120676  0.25051197  1  -0.247396  0  -0.045494  -0.065448  0  4.173066  0
C  C45  1  0.54265481  0.20263438  0.20996774  1  0.198072  0  -0.043159  -0.147025  0  4.186948  0
C  C46  1  0.49833381  0.13096550  0.12325410  1  0.62794  0  0.105209  0.28138  0  4.037513  0
C  C47  1  0.53033034  0.12339695  0.24496067  1  0.506607  0  0.106205  0.282815  0  4.035972  0
C  C48  1  0.53390088  0.24550206  0.13025436  1  0.575254  0  0.105738  0.283036  0  4.034146  0
O  O49  1  0.29353033  0.58237416  0.42680199  1  -1.256359  0  -0.239623  -0.597854  0  2.36568  0
O  O50  1  0.27709356  0.48966963  0.58308981  1  -1.258942  0  -0.238795  -0.594886  0  2.361777  0
O  O51  1  0.31600787  0.42658700  0.49049455  1  -1.25485  0  -0.240129  -0.601161  0  2.376875  0
O  O52  1  0.74808555  0.58235955  0.48956112  1  -1.262085  0  -0.239385  -0.600085  0  2.372669  0
O  O53  1  0.78723996  0.48849794  0.42692279  1  -1.249856  0  -0.238845  -0.594433  0  2.35876  0
O  O54  1  0.76289686  0.42699961  0.58248980  1  -1.261618  0  -0.240004  -0.598917  0  2.372986  0
O  O55  1  0.54109595  0.08252178  0.32089257  1  -1.137627  0  -0.331242  -0.397459  0  2.274056  0
O  O56  1  0.54553253  0.32159893  0.09483669  1  -1.143638  0  -0.332055  -0.398489  0  2.273067  0
O  O57  1  0.47624463  0.09578027  0.08272086  1  -1.104371  0  -0.331318  -0.398086  0  2.272976  0
