# generated using pymatgen
data_Hf3H14C39N3O16
_symmetry_space_group_name_H-M   'P 1'
_cell_length_a   14.91173599
_cell_length_b   14.87567144
_cell_length_c   14.89630761
_cell_angle_alpha   90.53339243
_cell_angle_beta   90.68576298
_cell_angle_gamma   90.71185106
_symmetry_Int_Tables_number   1
_chemical_formula_structural   Hf3H14C39N3O16
_chemical_formula_sum   'Hf6 H28 C78 N6 O32'
_cell_volume   3303.69051732
_cell_formula_units_Z   2
loop_
 _symmetry_equiv_pos_site_id
 _symmetry_equiv_pos_as_xyz
  1  'x, y, z'
loop_
 _atom_site_type_symbol
 _atom_site_label
 _atom_site_symmetry_multiplicity
 _atom_site_fract_x
 _atom_site_fract_y
 _atom_site_fract_z
 _atom_site_occupancy
 _atom_site_pbe_bader_charge
 _atom_site_pbe_bader_spin_density
 _atom_site_pbe_cm5_charge
 _atom_site_pbe_ddec_charge
 _atom_site_pbe_ddec_spin_density
 _atom_site_pbe_ddec_sum_bond_order
 _atom_site_pbe_magmom
Hf  Hf0  1  0.97538970  0.83268178  0.78243192  1  2.607593  0  1.481136  2.083597  0  3.331524  0
Hf  Hf1  1  0.83149948  0.01911815  0.73942258  1  2.607492  0  1.48196  2.083864  0  3.334208  0
Hf  Hf2  1  0.00731566  0.91071943  0.00183409  1  2.617074  0  1.509033  2.140232  0  3.338009  0
Hf  Hf3  1  0.78872515  0.87491479  0.92598181  1  2.60665  0  1.481361  2.083688  0  3.331833  0
Hf  Hf4  1  0.05066635  0.05185571  0.81791990  1  2.619014  0  1.508861  2.139194  0  3.33811  0
Hf  Hf5  1  0.86664398  0.09469989  0.95825880  1  2.620534  0  1.508479  2.14027  0  3.335612  0
H  H6  1  0.14463608  0.58960454  0.16735522  1  0.12895  0  0.125013  0.150285  0  0.970438  0
H  H7  1  0.11317136  0.40971713  0.17635177  1  0.137825  0  0.110506  0.129281  0  1.016669  0
H  H8  1  0.67841818  0.39086598  0.62376530  1  0.091705  0  0.12193  0.146278  0  0.974849  0
H  H9  1  0.66220259  0.57237490  0.62503157  1  0.098933  0  0.107664  0.127404  0  1.02544  0
H  H10  1  0.54675171  0.25961187  0.09307985  1  0.118963  0  0.124942  0.150093  0  0.969719  0
H  H11  1  0.36735315  0.26953816  0.06217542  1  0.113462  0  0.110664  0.130195  0  1.016664  0
H  H12  1  0.34703766  0.71803423  0.63126394  1  0.129828  0  0.121994  0.146389  0  0.973277  0
H  H13  1  0.52793477  0.71866688  0.61418020  1  0.098868  0  0.107341  0.127191  0  1.026447  0
H  H14  1  0.21418046  0.18630570  0.49780814  1  0.08689  0  0.124972  0.150034  0  0.970537  0
H  H15  1  0.22543516  0.15557975  0.31839236  1  0.109807  0  0.110682  0.1301  0  1.016263  0
H  H16  1  0.67297930  0.72138473  0.29672606  1  0.111896  0  0.121862  0.146251  0  0.974081  0
H  H17  1  0.67490193  0.70625850  0.47813022  1  0.101117  0  0.107788  0.127679  0  1.025224  0
H  H18  1  0.78486417  0.82817311  0.73513607  1  0.599373  0  0.325754  0.407132  0  0.880765  0
H  H19  1  0.13606815  0.89632774  0.86450988  1  0.614126  0  0.344958  0.429598  0  0.842045  0
H  H20  1  0.85174714  0.95664223  0.08682781  1  0.61673  0  0.345146  0.429698  0  0.841658  0
H  H21  1  0.91327759  0.18044926  0.80289645  1  0.614718  0  0.344684  0.429425  0  0.841334  0
H  H22  1  0.07457534  0.43342192  0.48197492  1  0.090267  0  0.111955  0.118743  0  0.997031  0
H  H23  1  0.93051640  0.33015819  0.24929736  1  0.076412  0  0.115497  0.130255  0  0.989817  0
H  H24  1  0.83531851  0.46515487  0.25145677  1  0.089695  0  0.114032  0.123317  0  0.987459  0
H  H25  1  0.97928537  0.56701357  0.48431411  1  0.10092  0  0.114912  0.129335  0  0.991877  0
H  H26  1  0.53186406  0.11928449  0.34067912  1  0.078039  0  0.11183  0.118523  0  0.996837  0
H  H27  1  0.29956266  0.97465733  0.23754651  1  0.095404  0  0.115147  0.129855  0  0.988815  0
H  H28  1  0.30110776  0.87977001  0.37294204  1  0.091533  0  0.114334  0.123925  0  0.986151  0
H  H29  1  0.53365622  0.02441247  0.47506261  1  0.125922  0  0.114917  0.128732  0  0.990947  0
H  H30  1  0.28546291  0.34392956  0.88079049  1  0.080858  0  0.115375  0.129999  0  0.989066  0
H  H31  1  0.39122903  0.57520322  0.02556978  1  0.088083  0  0.111781  0.118277  0  0.998273  0
H  H32  1  0.52482764  0.57668760  0.93023102  1  0.121177  0  0.115031  0.129711  0  0.989919  0
H  H33  1  0.42010566  0.34527025  0.78546993  1  0.082631  0  0.114348  0.123774  0  0.985245  0
C  C34  1  0.22722685  0.55235843  0.05126190  1  0.418061  0  0.092181  0.146111  0  4.090775  0
C  C35  1  0.17566146  0.53706088  0.12794919  1  0.02038  0  -0.083615  -0.163612  0  3.945586  0
C  C36  1  0.15911324  0.44447017  0.13218782  1  -0.090821  0  -0.087667  -0.164432  0  3.959015  0
C  C37  1  0.20128792  0.40310570  0.05908166  1  0.419868  0  0.094463  0.157035  0  4.068863  0
C  C38  1  0.59304308  0.39755097  0.74315012  1  0.400294  0  0.08887  0.145944  0  4.097138  0
C  C39  1  0.63735075  0.43115683  0.66783659  1  0.030978  0  -0.089005  -0.169229  0  3.968399  0
C  C40  1  0.62914256  0.52480219  0.66879969  1  0.024902  0  -0.097132  -0.18341  0  3.990772  0
C  C41  1  0.57868282  0.54855141  0.74386570  1  0.457502  0  0.093151  0.153119  0  4.069182  0
C  C42  1  0.50881261  0.14382464  0.17658362  1  0.457872  0  0.09246  0.14569  0  4.088969  0
C  C43  1  0.49409256  0.22052162  0.12455318  1  -0.015748  0  -0.083965  -0.163114  0  3.943395  0
C  C44  1  0.40170357  0.22526898  0.10835481  1  -0.015078  0  -0.087898  -0.16689  0  3.958912  0
C  C45  1  0.35988854  0.15245796  0.15118182  1  0.404639  0  0.094345  0.157323  0  4.067093  0
C  C46  1  0.35408212  0.83759272  0.54544653  1  0.360202  0  0.08938  0.145738  0  4.09911  0
C  C47  1  0.38730818  0.76215889  0.58995856  1  -0.036408  0  -0.089544  -0.169182  0  3.966318  0
C  C48  1  0.48067146  0.76273977  0.58125791  1  -0.007736  0  -0.097493  -0.184036  0  3.99172  0
C  C49  1  0.50464982  0.83775141  0.53037722  1  0.488733  0  0.093638  0.153536  0  4.071917  0
C  C50  1  0.09921997  0.26979180  0.45890878  1  0.442536  0  0.09306  0.147008  0  4.095005  0
C  C51  1  0.17567062  0.21778917  0.44474600  1  0.032357  0  -0.084339  -0.16384  0  3.945728  0
C  C52  1  0.18097647  0.20162887  0.35234355  1  -0.020774  0  -0.087659  -0.166062  0  3.960102  0
C  C53  1  0.10856782  0.24429496  0.30998032  1  0.441696  0  0.093973  0.155757  0  4.068528  0
C  C54  1  0.79261842  0.63637594  0.30416442  1  0.524407  0  0.088962  0.144855  0  4.101122  0
C  C55  1  0.71737924  0.68074373  0.33730269  1  -0.088522  0  -0.08945  -0.169643  0  3.96699  0
C  C56  1  0.71865021  0.67305569  0.43092516  1  0.028779  0  -0.096715  -0.183036  0  3.989856  0
C  C57  1  0.79375872  0.62273149  0.45503607  1  0.461284  0  0.093666  0.153757  0  4.07271  0
C  C58  1  0.10918176  0.74083470  0.92269954  1  1.615373  0  0.244203  0.696661  0  4.172015  0
C  C59  1  0.90455018  0.70565834  0.67891499  1  1.620218  0  0.210297  0.624438  0  4.252989  0
C  C60  1  0.66096498  0.77260321  0.85467234  1  1.619902  0  0.21079  0.624506  0  4.254387  0
C  C61  1  0.14271473  0.91945860  0.67854860  1  1.64771  0  0.251711  0.707786  0  4.150464  0
C  C62  1  0.72711865  0.18635050  0.82536822  1  1.651387  0  0.25126  0.707396  0  4.15036  0
C  C63  1  0.98308262  0.08924440  0.12983829  1  1.647543  0  0.239352  0.688435  0  4.19304  0
C  C64  1  0.72907877  0.94800092  0.61164766  1  1.623259  0  0.211047  0.62477  0  4.255395  0
C  C65  1  0.97086840  0.15349817  0.64781608  1  1.633536  0  0.244065  0.696977  0  4.172305  0
C  C66  1  0.17858180  0.02805927  0.99682200  1  1.654683  0  0.239435  0.688475  0  4.192687  0
C  C67  1  0.87521116  0.77039353  0.09330791  1  1.667916  0  0.251464  0.708537  0  4.151446  0
C  C68  1  0.69665015  0.01437005  0.05953938  1  1.625429  0  0.244621  0.699056  0  4.171166  0
C  C69  1  0.04533914  0.22307316  0.93470700  1  1.650823  0  0.238357  0.686638  0  4.19373  0
C  C70  1  0.85871120  0.70072617  0.15748177  1  0.221789  0  -0.036112  -0.176093  0  3.917056  0
C  C71  1  0.83242013  0.65917604  0.22276735  1  -0.506164  0  -0.022239  -0.054138  0  4.122413  0
C  C72  1  0.86239992  0.64361575  0.61531113  1  0.323044  0  -0.039283  -0.176042  0  3.860802  0
C  C73  1  0.83174003  0.62191288  0.54147973  1  -0.608818  0  -0.009712  -0.035107  0  4.094253  0
C  C74  1  0.03242206  0.15637020  0.17977629  1  0.175215  0  -0.023295  -0.1507  0  3.918453  0
C  C75  1  0.06668236  0.21104960  0.23206462  1  -0.410395  0  -0.022666  -0.062986  0  4.097916  0
C  C76  1  0.99713194  0.22590332  0.59046743  1  0.309525  0  -0.044042  -0.190334  0  3.899612  0
C  C77  1  0.04403639  0.26074769  0.53323643  1  -0.530062  0  -0.016592  -0.039941  0  4.109775  0
C  C78  1  0.02059483  0.43907419  0.43260034  1  0.02212  0  -0.0852  -0.149091  0  3.987455  0
C  C79  1  0.00713115  0.37038514  0.36806597  1  0.273048  0  0.097279  0.169968  0  4.005692  0
C  C80  1  0.94182397  0.38172973  0.30078498  1  -0.00323  0  -0.082699  -0.1453  0  3.956209  0
C  C81  1  0.88825669  0.45826067  0.30189919  1  0.035758  0  -0.081491  -0.144684  0  3.961157  0
C  C82  1  0.89888870  0.52419798  0.36951566  1  0.309515  0  0.09676  0.169039  0  4.012201  0
C  C83  1  0.96730698  0.51493293  0.43368183  1  -0.008581  0  -0.085005  -0.1438  0  3.983069  0
C  C84  1  0.27278907  0.87736238  0.56822307  1  -0.31266  0  -0.023314  -0.055728  0  4.120294  0
C  C85  1  0.20748615  0.90296387  0.60978496  1  0.146392  0  -0.035491  -0.174843  0  3.916935  0
C  C86  1  0.59127256  0.87524773  0.52874705  1  -0.599057  0  -0.010121  -0.034663  0  4.094068  0
C  C87  1  0.66536626  0.90573273  0.54976513  1  0.316584  0  -0.039688  -0.177102  0  3.86001  0
C  C88  1  0.22865170  0.07726104  0.06398748  1  -0.241237  0  -0.023125  -0.149737  0  3.914804  0
C  C89  1  0.28168775  0.11065934  0.11848524  1  0.02185  0  -0.023347  -0.064905  0  4.095956  0
C  C90  1  0.58286002  0.08843092  0.16655654  1  -0.507796  0  -0.017789  -0.041036  0  4.107795  0
C  C91  1  0.63951647  0.04108027  0.13165545  1  0.278514  0  -0.043559  -0.190507  0  3.898538  0
C  C92  1  0.48258401  0.06512966  0.34652320  1  0.004989  0  -0.085235  -0.149217  0  3.984671  0
C  C93  1  0.41823114  0.05144451  0.27773187  1  0.278676  0  0.097422  0.169404  0  4.004762  0
C  C94  1  0.35085024  0.98614981  0.28928385  1  0.009641  0  -0.082827  -0.144915  0  3.952751  0
C  C95  1  0.35166527  0.93273732  0.36609724  1  -0.029567  0  -0.081249  -0.145503  0  3.958983  0
C  C96  1  0.41910889  0.94356758  0.43220397  1  0.300637  0  0.095735  0.16795  0  4.012658  0
C  C97  1  0.48331466  0.01210150  0.42277290  1  0.010087  0  -0.084202  -0.141672  0  3.97847  0
C  C98  1  0.65775506  0.25059324  0.80864912  1  0.206612  0  -0.036197  -0.175753  0  3.914981  0
C  C99  1  0.61607389  0.31595990  0.78282353  1  -0.452344  0  -0.022453  -0.054881  0  4.117801  0
C  C100  1  0.59887849  0.70920639  0.81218572  1  0.33157  0  -0.03979  -0.177414  0  3.860528  0
C  C101  1  0.57752072  0.63515826  0.78160191  1  -0.606407  0  -0.009117  -0.033314  0  4.092359  0
C  C102  1  0.16792675  0.32518411  0.01715434  1  0.060121  0  -0.023628  -0.065974  0  4.09568  0
C  C103  1  0.11261616  0.27285568  0.98394297  1  -0.251882  0  -0.022499  -0.147775  0  3.915859  0
C  C104  1  0.21703364  0.62708076  0.99641981  1  -0.407459  0  -0.01717  -0.041331  0  4.107042  0
C  C105  1  0.18163125  0.68402591  0.94944870  1  0.208247  0  -0.044326  -0.189676  0  3.898971  0
C  C106  1  0.33758308  0.39494061  0.89218562  1  0.025082  0  -0.082942  -0.144599  0  3.954724  0
C  C107  1  0.32707545  0.46200162  0.95782629  1  0.262293  0  0.097683  0.169609  0  4.007258  0
C  C108  1  0.39635678  0.52597938  0.97141319  1  0.005386  0  -0.085075  -0.147641  0  3.985582  0
C  C109  1  0.47215404  0.52659985  0.91812692  1  -0.016813  0  -0.084558  -0.144753  0  3.980835  0
C  C110  1  0.48066862  0.46259839  0.84946100  1  0.2772  0  0.096088  0.169115  0  4.012788  0
C  C111  1  0.41400669  0.39560031  0.83860282  1  0.036039  0  -0.081259  -0.145012  0  3.958854  0
N  N112  1  0.25078129  0.46934671  0.01397557  1  -1.150516  0  -0.207155  -0.058043  0  3.633765  0
N  N113  1  0.55263844  0.46945627  0.78758550  1  -1.159522  0  -0.207952  -0.055439  0  3.6397  0
N  N114  1  0.42573697  0.10715301  0.20081892  1  -1.148095  0  -0.207185  -0.056249  0  3.629669  0
N  N115  1  0.42593967  0.88183525  0.50456575  1  -1.155864  0  -0.208036  -0.054675  0  3.639425  0
N  N116  1  0.06295292  0.29374646  0.37561532  1  -1.168293  0  -0.207738  -0.057607  0  3.636179  0
N  N117  1  0.83721420  0.59630718  0.37628946  1  -1.17453  0  -0.207692  -0.053566  0  3.638083  0
O  O118  1  0.08153355  0.78881313  0.98830316  1  -1.148714  0  -0.347422  -0.573444  0  2.320807  0
O  O119  1  0.93103625  0.78134160  0.64676076  1  -1.118969  0  -0.328367  -0.538642  0  2.144086  0
O  O120  1  0.73587965  0.73979446  0.88204531  1  -1.119074  0  -0.330387  -0.540314  0  2.142374  0
O  O121  1  0.08916333  0.85375036  0.69367792  1  -1.146413  0  -0.33446  -0.564901  0  2.27624  0
O  O122  1  0.14597979  0.99441658  0.72152920  1  -1.162931  0  -0.336365  -0.575084  0  2.220266  0
O  O123  1  0.64769650  0.85673928  0.86307503  1  -1.135925  0  -0.3196  -0.536049  0  2.121555  0
O  O124  1  0.91343264  0.69145466  0.76285755  1  -1.136167  0  -0.321123  -0.538084  0  2.119951  0
O  O125  1  0.07657667  0.73989447  0.84298430  1  -1.16062  0  -0.330092  -0.568448  0  2.217062  0
O  O126  1  0.95715143  0.96715680  0.75422949  1  -1.204719  0  -0.74784  -1.034787  0  2.152842  0
O  O127  1  0.92298012  0.84699192  0.90792032  1  -1.206318  0  -0.747184  -1.035963  0  2.152279  0
O  O128  1  0.82270165  0.86634157  0.77330508  1  -1.241739  0  -0.613328  -0.951199  0  2.198589  0
O  O129  1  0.07349762  0.91339463  0.86399657  1  -1.235797  0  -0.66759  -1.006676  0  2.44733  0
O  O130  1  0.74259046  0.13289867  0.75990128  1  -1.148812  0  -0.334085  -0.56405  0  2.278213  0
O  O131  1  0.01380999  0.00998428  0.12366584  1  -1.161634  0  -0.318309  -0.56936  0  2.196266  0
O  O132  1  0.69661869  0.97529253  0.68670215  1  -1.119513  0  -0.330556  -0.540519  0  2.147987  0
O  O133  1  0.03663257  0.12639074  0.69600438  1  -1.149271  0  -0.346396  -0.5722  0  2.320284  0
O  O134  1  0.17247057  0.05900081  0.91760794  1  -1.158684  0  -0.317945  -0.569993  0  2.195803  0
O  O135  1  0.80974878  0.78558227  0.03966124  1  -1.148178  0  -0.335002  -0.565954  0  2.277327  0
O  O136  1  0.74454904  0.08026780  0.03186734  1  -1.15483  0  -0.346723  -0.573586  0  2.322015  0
O  O137  1  0.96627092  0.21674084  0.96550700  1  -1.161557  0  -0.317169  -0.568988  0  2.195938  0
O  O138  1  0.69602506  0.93448664  0.02725657  1  -1.148152  0  -0.330792  -0.569643  0  2.219665  0
O  O139  1  0.07214331  0.18859265  0.86029138  1  -1.159202  0  -0.36342  -0.594315  0  2.288931  0
O  O140  1  0.81302528  0.95623050  0.59819173  1  -1.144825  0  -0.319638  -0.536351  0  2.120108  0
O  O141  1  0.94973993  0.81402392  0.09712779  1  -1.16136  0  -0.336248  -0.57463  0  2.222806  0
O  O142  1  0.14370770  0.95362354  0.02372795  1  -1.159724  0  -0.363101  -0.59493  0  2.289661  0
O  O143  1  0.89139779  0.12041294  0.64689107  1  -1.158852  0  -0.330721  -0.568244  0  2.223206  0
O  O144  1  0.77025226  0.19001562  0.90020442  1  -1.162539  0  -0.336367  -0.57494  0  2.219733  0
O  O145  1  0.90883189  0.11620004  0.09503398  1  -1.161963  0  -0.363503  -0.59565  0  2.286941  0
O  O146  1  0.98851935  0.03278730  0.93969482  1  -1.211679  0  -0.757447  -1.073913  0  2.229121  0
O  O147  1  0.80327962  0.00082638  0.87368462  1  -1.205313  0  -0.747791  -1.035774  0  2.154564  0
O  O148  1  0.86903835  0.95650393  0.02425865  1  -1.239617  0  -0.667974  -1.005984  0  2.446545  0
O  O149  1  0.91284017  0.11772319  0.82012139  1  -1.237229  0  -0.667126  -1.006109  0  2.444398  0
