# generated using pymatgen
data_Al3H31C45N3O14F15
_symmetry_space_group_name_H-M   'P 1'
_cell_length_a   13.63053925
_cell_length_b   13.63181918
_cell_length_c   28.15851218
_cell_angle_alpha   89.88352152
_cell_angle_beta   90.10162418
_cell_angle_gamma   60.05998623
_symmetry_Int_Tables_number   1
_chemical_formula_structural   Al3H31C45N3O14F15
_chemical_formula_sum   'Al6 H62 C90 N6 O28 F30'
_cell_volume   4533.84053795
_cell_formula_units_Z   2
loop_
 _symmetry_equiv_pos_site_id
 _symmetry_equiv_pos_as_xyz
  1  'x, y, z'
loop_
 _atom_site_type_symbol
 _atom_site_label
 _atom_site_symmetry_multiplicity
 _atom_site_fract_x
 _atom_site_fract_y
 _atom_site_fract_z
 _atom_site_occupancy
 _atom_site_pbe_bader_charge
 _atom_site_pbe_bader_spin_density
 _atom_site_pbe_cm5_charge
 _atom_site_pbe_ddec_charge
 _atom_site_pbe_ddec_spin_density
 _atom_site_pbe_ddec_sum_bond_order
 _atom_site_pbe_magmom
Al  Al0  1  0.75336212  0.76336809  0.74921716  1  2.495007  0  0.403076  1.683292  0  2.552396  0
Al  Al1  1  0.74300139  0.53309317  0.74946462  1  2.480338  0  0.507945  1.658466  0  2.517248  0
Al  Al2  1  0.52288715  0.75256315  0.75106556  1  2.48204  0  0.509137  1.658206  0  2.515587  0
Al  Al3  1  0.24599038  0.51442881  0.25123514  1  2.491352  0  0.401312  1.686059  0  2.553413  0
Al  Al4  1  0.26064865  0.27124149  0.25087221  1  2.48282  0  0.506665  1.657507  0  2.521625  0
Al  Al5  1  0.47843560  0.27478000  0.25128747  1  2.473465  0  0.510163  1.657841  0  2.51186  0
H  H6  1  0.65624228  0.36795676  0.03284447  1  0.076992  0  0.118103  0.080344  0  0.933957  0
H  H7  1  0.60512366  0.77693840  0.52493977  1  0.042855  0  0.097031  0.104713  0  0.994266  0
H  H8  1  0.61054750  0.58642756  0.52991635  1  0.052636  0  0.10059  0.107453  0  0.980136  0
H  H9  1  0.84180137  0.49955129  0.53926387  1  0.07934  0  0.09713  0.104108  0  0.985679  0
H  H10  1  0.67297993  0.37992478  0.54247439  1  0.089556  0  0.115342  0.083327  0  0.941229  0
H  H11  1  0.39067726  0.90764038  0.52086370  1  0.090964  0  0.106652  0.067594  0  0.964514  0
H  H12  1  0.87242085  0.67263507  0.52447347  1  0.079974  0  0.107921  0.072335  0  0.966689  0
H  H13  1  0.32502520  0.12545634  0.47157744  1  0.055034  0  0.108673  0.073042  0  0.961581  0
H  H14  1  0.55413341  0.31548683  0.47650037  1  0.089149  0  0.110399  0.076082  0  0.954377  0
H  H15  1  0.09162716  0.60070263  0.47414128  1  0.085999  0  0.11167  0.079383  0  0.953004  0
H  H16  1  0.68330730  0.42676205  0.95834512  1  0.096659  0  0.112599  0.082433  0  0.95729  0
H  H17  1  0.37599315  0.97037691  0.04389719  1  0.056184  0  0.118823  0.081235  0  0.933705  0
H  H18  1  0.42938210  0.88218149  0.96957297  1  0.108632  0  0.111826  0.083008  0  0.959965  0
H  H19  1  0.89332633  0.67499704  0.96220489  1  0.111056  0  0.114073  0.084118  0  0.952718  0
H  H20  1  0.33424203  0.16030642  0.03996142  1  0.136337  0  0.111926  0.083476  0  0.983375  0
H  H21  1  0.50514966  0.32622285  0.02933855  1  0.142303  0  0.110651  0.084429  0  0.991495  0
H  H22  1  0.16606052  0.49601230  0.03607584  1  0.112151  0  0.1129  0.085067  0  0.976839  0
H  H23  1  0.46604433  0.68889097  0.53028949  1  0.092193  0  0.10055  0.096942  0  1.008945  0
H  H24  1  0.68533806  0.84519619  0.51895573  1  0.028922  0  0.100118  0.097754  0  1.003994  0
H  H25  1  0.96551503  0.36746771  0.53263399  1  0.040415  0  0.102007  0.10746  0  0.980411  0
H  H26  1  0.62825388  0.03715344  0.46435701  1  0.029775  0  0.104255  0.109051  0  0.982562  0
H  H27  1  0.30697230  0.61045155  0.46731622  1  0.060332  0  0.10454  0.11054  0  0.990586  0
H  H28  1  0.97392209  0.64629402  0.03799365  1  0.092474  0  0.118333  0.080758  0  0.934221  0
H  H29  1  0.13620474  0.31112750  0.48083121  1  0.039568  0  0.101205  0.103407  0  0.990055  0
H  H30  1  0.37038747  0.47465027  0.55517201  1  0.062286  0  0.108703  0.063528  0  0.980123  0
H  H31  1  0.46002835  0.13779601  0.54370910  1  0.043113  0  0.109729  0.069644  0  0.963829  0
H  H32  1  0.16982080  0.47442967  0.54292445  1  0.044354  0  0.109938  0.065196  0  0.968828  0
H  H33  1  0.52841712  0.82624945  0.44863270  1  0.082272  0  0.105848  0.063437  0  1.016524  0
H  H34  1  0.60233379  0.55620872  0.44949765  1  0.056788  0  0.110175  0.06815  0  0.972306  0
H  H35  1  0.84813836  0.55740055  0.46054166  1  0.077778  0  0.109694  0.067517  0  0.972658  0
H  H36  1  0.36729125  0.73849868  0.46105249  1  0.388947  0  0.289488  0.225639  0  0.974597  0
H  H37  1  0.40207097  0.80446704  0.38575845  1  0.04025  0  0.09948  0.113118  0  0.99099  0
H  H38  1  0.38196578  0.68598154  0.37684012  1  0.050916  0  0.093955  0.10594  0  0.999459  0
H  H39  1  0.33393799  0.08858384  0.96488428  1  0.100871  0  0.11847  0.085383  0  0.932648  0
H  H40  1  0.52074715  0.66643450  0.37846102  1  0.025797  0  0.099549  0.103641  0  1.006442  0
H  H41  1  0.73511498  0.84185076  0.44010980  1  0.414979  0  0.287009  0.228875  0  0.981723  0
H  H42  1  0.77322486  0.73281566  0.37220441  1  0.072359  0  0.105136  0.120034  0  0.977862  0
H  H43  1  0.63602696  0.84995714  0.35995286  1  0.054788  0  0.082803  0.08348  0  1.031611  0
H  H44  1  0.65107625  0.72022019  0.38140630  1  0.0162  0  0.093284  0.095603  0  1.020048  0
H  H45  1  0.97589309  0.31100573  0.44959695  1  0.393669  0  0.291784  0.232876  0  0.965431  0
H  H46  1  0.83428116  0.34567702  0.39190246  1  0.058947  0  0.102691  0.1185  0  0.975531  0
H  H47  1  0.90167130  0.42231031  0.37221105  1  0.034577  0  0.082023  0.082813  0  1.032234  0
H  H48  1  0.77031143  0.49264643  0.40302762  1  0.026231  0  0.092287  0.093179  0  1.016582  0
H  H49  1  0.70657238  0.98941160  0.53837235  1  0.379632  0  0.289127  0.227627  0  0.974644  0
H  H50  1  0.57288082  0.33350000  0.95422428  1  0.103682  0  0.119084  0.083776  0  0.930888  0
H  H51  1  0.70262795  0.10728277  0.60435121  1  0.053548  0  0.097944  0.108593  0  0.979782  0
H  H52  1  0.65596480  0.01313296  0.62436798  1  0.053234  0  0.088935  0.099164  0  1.017441  0
H  H53  1  0.55608461  0.15639445  0.60955059  1  0.046828  0  0.097145  0.1046  0  0.996367  0
H  H54  1  0.28633047  0.71671263  0.54231505  1  0.376159  0  0.287352  0.226664  0  0.974182  0
H  H55  1  0.16024472  0.73449858  0.60475797  1  0.073889  0  0.106223  0.123814  0  0.968015  0
H  H56  1  0.30049934  0.65508151  0.62837435  1  0.044684  0  0.083043  0.085394  0  1.028272  0
H  H57  1  0.22670921  0.58555441  0.60826207  1  0.054369  0  0.097182  0.102851  0  1.004996  0
H  H58  1  0.16329282  0.26673556  0.56306076  1  0.400238  0  0.289196  0.235325  0  0.972675  0
H  H59  1  0.28689887  0.24259405  0.62555107  1  0.053729  0  0.103931  0.117208  0  0.978787  0
H  H60  1  0.16725729  0.37882982  0.63673123  1  0.037434  0  0.08444  0.086684  0  1.027391  0
H  H61  1  0.09641396  0.56401357  0.96001198  1  0.083601  0  0.118497  0.084224  0  0.933104  0
H  H62  1  0.28937768  0.36645215  0.60798584  1  0.023083  0  0.093289  0.094896  0  1.00581  0
H  H63  1  0.34395421  0.46800717  0.47436966  1  0.024659  0  0.096938  0.103615  0  0.98564  0
H  H64  1  0.49291417  0.15811600  0.46357098  1  0.048439  0  0.097817  0.103548  0  0.98528  0
H  H65  1  0.21325612  0.38047317  0.46853102  1  0.026101  0  0.096884  0.102337  0  0.991804  0
H  H66  1  0.83038048  0.87198649  0.77785008  1  0.55459  0  0.295643  0.387544  0  0.916176  0
H  H67  1  0.15166163  0.70057298  0.22171608  1  0.576477  0  0.296071  0.38867  0  0.914379  0
C  C68  1  0.87589249  0.56145777  0.81627707  1  1.650986  0  0.283433  0.717029  0  4.148711  0
C  C69  1  0.57694592  0.86818678  0.45820280  1  0.392329  0  0.011394  0.092198  0  3.826757  0
C  C70  1  0.51845396  0.58845651  0.46568651  1  0.361262  0  0.015745  0.102844  0  3.805274  0
C  C71  1  0.92214600  0.47523527  0.47014316  1  0.369693  0  0.012096  0.095072  0  3.842444  0
C  C72  1  0.47063283  0.45266617  0.36599641  1  -0.362592  0  -0.038784  -0.210412  0  3.949316  0
C  C73  1  0.46448765  0.07236941  0.35888705  1  0.087755  0  -0.041707  -0.221925  0  3.939474  0
C  C74  1  0.08434982  0.45412488  0.36511570  1  0.152525  0  -0.038995  -0.208966  0  3.955171  0
C  C75  1  0.52928595  0.91175033  0.63297041  1  0.240968  0  -0.041337  -0.214855  0  3.953698  0
C  C76  1  0.53582310  0.54859153  0.64009944  1  -0.263853  0  -0.039719  -0.216525  0  3.939117  0
C  C77  1  0.93427764  0.53460945  0.63915376  1  0.070425  0  -0.039147  -0.209178  0  3.946877  0
C  C78  1  0.49972529  0.52091863  0.54942654  1  0.094773  0  -0.005465  0.043109  0  3.904764  0
C  C79  1  0.56343780  0.57213450  0.81382844  1  1.68363  0  0.291206  0.725932  0  4.136689  0
C  C80  1  0.51307306  0.95865652  0.54060846  1  0.11877  0  -0.007498  0.041382  0  3.894818  0
C  C81  1  0.99917540  0.50363627  0.54901205  1  0.130035  0  -0.005151  0.046309  0  3.878314  0
C  C82  1  0.49495188  0.99994282  0.44835893  1  0.078073  0  -0.005616  0.04191  0  3.876244  0
C  C83  1  0.48557716  0.49334501  0.45740658  1  0.108468  0  -0.005947  0.045997  0  3.900391  0
C  C84  1  0.03015477  0.48431823  0.45648563  1  0.130983  0  -0.005516  0.049313  0  3.890837  0
C  C85  1  0.57595631  0.38250549  0.48122471  1  0.490438  0  0.029829  0.120059  0  3.803708  0
C  C86  1  0.37915846  0.03266729  0.47075352  1  0.529346  0  0.027195  0.115438  0  3.818104  0
C  C87  1  0.01155872  0.59927409  0.47463691  1  0.501077  0  0.02819  0.105461  0  3.833079  0
C  C88  1  0.39633702  0.98548949  0.52113496  1  0.491066  0  0.02724  0.117138  0  3.823095  0
C  C89  1  0.58608189  0.39925632  0.53440384  1  0.52725  0  0.029652  0.106673  0  3.817652  0
C  C90  1  0.55768826  0.87998668  0.81864107  1  1.663914  0  0.284469  0.719235  0  4.147659  0
C  C91  1  0.96527262  0.61888653  0.52525429  1  0.521589  0  0.02661  0.105299  0  3.840885  0
C  C92  1  0.47818615  0.47259614  0.40745709  1  0.109098  0  -0.01094  0.00014  0  4.017886  0
C  C93  1  0.48009256  0.03294743  0.39882494  1  -0.294576  0  0.00207  0.033675  0  3.980099  0
C  C94  1  0.05524100  0.47061805  0.40640617  1  -0.422521  0  -0.009883  0.009625  0  4.016961  0
C  C95  1  0.52109508  0.93343178  0.59078066  1  -0.508092  0  -0.009629  0.011519  0  4.011695  0
C  C96  1  0.51513540  0.53600742  0.59928443  1  -0.000616  0  -2.4e-05  0.023465  0  3.989415  0
C  C97  1  0.97096304  0.51878082  0.59890293  1  -0.327007  0  -0.011434  0.008462  0  4.010844  0
C  C98  1  0.87638183  0.56548274  0.68385467  1  1.636064  0  0.280221  0.713108  0  4.166378  0
C  C99  1  0.56472948  0.57454088  0.68545346  1  1.683362  0  0.283632  0.726243  0  4.151177  0
C  C100  1  0.55500994  0.87470875  0.68141178  1  1.653846  0  0.278813  0.712384  0  4.160786  0
C  C101  1  0.12610220  0.43075361  0.18449823  1  1.647313  0  0.282954  0.714865  0  4.153843  0
C  C102  1  0.13284327  0.43284612  0.31855843  1  1.650264  0  0.279434  0.713261  0  4.170879  0
C  C103  1  0.43700386  0.13286442  0.31480478  1  1.615499  0  0.282152  0.723844  0  4.151608  0
C  C104  1  0.44534258  0.43394016  0.31845197  1  1.660496  0  0.281051  0.713827  0  4.160153  0
C  C105  1  0.60841173  0.49409869  0.97631317  1  0.569716  0  0.033221  0.105731  0  3.833003  0
C  C106  1  0.49755375  0.89112585  0.98617044  1  0.552244  0  0.032254  0.10516  0  3.829803  0
C  C107  1  0.89872570  0.60022969  0.97967025  1  0.542647  0  0.032806  0.105096  0  3.832743  0
C  C108  1  0.41718040  0.12536701  0.02292666  1  0.512544  0  0.031092  0.103808  0  3.818008  0
C  C109  1  0.45679798  0.41092154  0.01368847  1  0.51239  0  0.030993  0.101497  0  3.81348  0
C  C110  1  0.13077551  0.44778428  0.01934901  1  0.528387  0  0.031737  0.104473  0  3.813187  0
C  C111  1  0.48963235  0.40905022  0.96057748  1  0.552198  0  0.036206  0.125674  0  3.81907  0
C  C112  1  0.44373588  0.13534114  0.18677156  1  1.669084  0  0.28872  0.724554  0  4.140266  0
C  C113  1  0.41047170  0.09543269  0.97007729  1  0.555598  0  0.035635  0.118008  0  3.827597  0
C  C114  1  0.10309778  0.48095617  0.96603682  1  0.573191  0  0.035062  0.12003  0  3.830481  0
C  C115  1  0.46835103  0.92949233  0.03878622  1  0.586791  0  0.035446  0.117885  0  3.835795  0
C  C116  1  0.60366164  0.46057186  0.02879788  1  0.569668  0  0.035781  0.118499  0  3.833507  0
C  C117  1  0.93369672  0.59417759  0.03270530  1  0.555164  0  0.035967  0.117832  0  3.835128  0
C  C118  1  0.46416751  0.45918878  0.13455947  1  -0.359568  0  -0.019926  -0.158165  0  3.897962  0
C  C119  1  0.47539188  0.07755044  0.14191041  1  0.045856  0  -0.019587  -0.166762  0  3.898789  0
C  C120  1  0.07380047  0.44977989  0.13834884  1  0.234172  0  -0.019929  -0.157639  0  3.909504  0
C  C121  1  0.53175515  0.92853213  0.86563590  1  -0.328678  0  -0.019317  -0.156646  0  3.89912  0
C  C122  1  0.53328356  0.54212684  0.85825515  1  -0.42016  0  -0.019808  -0.167449  0  3.897355  0
C  C123  1  0.43944164  0.43725647  0.18199752  1  1.684932  0  0.28338  0.718296  0  4.14619  0
C  C124  1  0.93211172  0.52674473  0.86166808  1  -0.043237  0  -0.019865  -0.155282  0  3.907623  0
C  C125  1  0.49955351  0.51521031  0.94906514  1  0.081354  0  -0.011451  -0.079536  0  3.945105  0
C  C126  1  0.51513405  0.97938214  0.95746313  1  0.113425  0  -0.010758  -0.072923  0  3.944812  0
C  C127  1  0.98745314  0.49161372  0.95295198  1  0.105906  0  -0.011999  -0.075164  0  3.954462  0
C  C128  1  0.50418075  0.01840708  0.05098070  1  0.090198  0  -0.011375  -0.075592  0  3.94873  0
C  C129  1  0.48047258  0.49407215  0.04265818  1  0.093876  0  -0.011888  -0.073412  0  3.951445  0
C  C130  1  0.02220426  0.47047223  0.04663090  1  0.087605  0  -0.012321  -0.074844  0  3.951973  0
C  C131  1  0.39748714  0.61716490  0.02581449  1  1.190648  0  0.199591  0.347475  0  3.913736  0
C  C132  1  0.62523114  0.97891504  0.03191464  1  1.147809  0  0.19917  0.345669  0  3.915963  0
C  C133  1  0.98309843  0.38781907  0.02850083  1  1.187535  0  0.198262  0.355663  0  3.896925  0
C  C134  1  0.37716366  0.54247466  0.53702032  1  0.340198  0  0.012905  0.097357  0  3.828596  0
C  C135  1  0.62447716  0.97671677  0.97584402  1  1.155947  0  0.200308  0.347527  0  3.899872  0
C  C136  1  0.39496921  0.62241124  0.96973329  1  1.101503  0  0.201505  0.348671  0  3.897825  0
C  C137  1  0.98306531  0.38687141  0.97251574  1  1.117097  0  0.200532  0.347212  0  3.897635  0
C  C138  1  0.47097742  0.47850869  0.09299709  1  0.172804  0  -0.024704  -0.006852  0  4.029074  0
C  C139  1  0.49348339  0.04525784  0.10109126  1  -0.21687  0  -0.012613  0.016235  0  4.008606  0
C  C140  1  0.04562373  0.45886455  0.09702301  1  -0.404235  0  -0.024232  -0.006767  0  4.038314  0
C  C141  1  0.52241626  0.95496768  0.90717844  1  0.142602  0  -0.024356  -0.007594  0  4.031192  0
C  C142  1  0.51381370  0.52837326  0.89898018  1  0.248222  0  -0.012094  0.016957  0  4.01009  0
C  C143  1  0.96324050  0.50655411  0.90264385  1  -0.130794  0  -0.024862  -0.009838  0  4.04098  0
C  C144  1  0.52617577  0.60119491  0.52002156  1  -0.086437  0  -0.147176  -0.240538  0  3.847765  0
C  C145  1  0.53417806  0.06141285  0.52971732  1  0.421094  0  0.015365  0.098894  0  3.836837  0
C  C146  1  0.60135928  0.85492274  0.51221660  1  -0.03598  0  -0.150368  -0.243754  0  3.869901  0
C  C147  1  0.92768254  0.45822296  0.52445342  1  -0.090696  0  -0.151678  -0.249278  0  3.880333  0
C  C148  1  0.53987247  0.06917702  0.47503618  1  -0.040565  0  -0.149252  -0.247448  0  3.87036  0
C  C149  1  0.37172095  0.52927642  0.48243683  1  -0.02205  0  -0.151831  -0.248586  0  3.854329  0
C  C150  1  0.13436264  0.39249419  0.48427410  1  -0.028177  0  -0.15061  -0.254005  0  3.880882  0
C  C151  1  0.43590790  0.71442223  0.39408744  1  0.312466  0  -0.147839  -0.224134  0  3.980341  0
C  C152  1  0.68497520  0.77817997  0.38426684  1  0.248983  0  -0.147911  -0.214105  0  3.999811  0
C  C153  1  0.85212981  0.41345435  0.40108828  1  0.27622  0  -0.148427  -0.215671  0  4.009769  0
C  C154  1  0.63757685  0.08292068  0.59966115  1  0.260793  0  -0.149396  -0.215889  0  3.99744  0
C  C155  1  0.24189474  0.65616921  0.60109875  1  0.226227  0  -0.149385  -0.221415  0  4.003392  0
C  C156  1  0.12948256  0.42256736  0.53731449  1  0.391661  0  0.014002  0.10691  0  3.834416  0
C  C157  1  0.23490041  0.32839226  0.61108087  1  0.283301  0  -0.147316  -0.215764  0  4.008937  0
N  N158  1  0.44535186  0.69995340  0.44573425  1  -1.122421  0  -0.486245  -0.346978  0  3.485461  0
N  N159  1  0.68341460  0.80932986  0.43382759  1  -1.120668  0  -0.491271  -0.348976  0  3.526713  0
N  N160  1  0.90579235  0.38939364  0.44782416  1  -1.103824  0  -0.491788  -0.350852  0  3.496585  0
N  N161  1  0.63334464  0.05770174  0.54953993  1  -1.100698  0  -0.490328  -0.349337  0  3.514064  0
N  N162  1  0.28079384  0.64767527  0.55214005  1  -1.071556  0  -0.492246  -0.355533  0  3.495438  0
N  N163  1  0.19540601  0.31998985  0.56393779  1  -1.108693  0  -0.493244  -0.359779  0  3.518949  0
O  O164  1  0.65168559  0.85832750  0.80142703  1  -1.222318  0  -0.205697  -0.559232  0  2.287923  0
O  O165  1  0.14879580  0.50388754  0.19981963  1  -1.207835  0  -0.204597  -0.55488  0  2.282924  0
O  O166  1  0.34565348  0.16274673  0.20243236  1  -1.235639  0  -0.220157  -0.579553  0  2.246987  0
O  O167  1  0.51406876  0.34521424  0.20232375  1  -1.250316  0  -0.237826  -0.598554  0  2.222982  0
O  O168  1  0.64999422  0.85431739  0.69734796  1  -1.214278  0  -0.200482  -0.542365  0  2.282648  0
O  O169  1  0.85204933  0.49369125  0.70264135  1  -1.253209  0  -0.244019  -0.611368  0  2.236661  0
O  O170  1  0.49405519  0.66942200  0.70403048  1  -1.253771  0  -0.226257  -0.590601  0  2.253698  0
O  O171  1  0.35083890  0.50633267  0.30138501  1  -1.217021  0  -0.200065  -0.539331  0  2.279609  0
O  O172  1  0.15391532  0.33898943  0.29877396  1  -1.257723  0  -0.242907  -0.609901  0  2.237795  0
O  O173  1  0.50538265  0.16371218  0.29894880  1  -1.239756  0  -0.227427  -0.591686  0  2.248093  0
O  O174  1  0.85046068  0.66149266  0.70022608  1  -1.223978  0  -0.200012  -0.537653  0  2.293332  0
O  O175  1  0.85256225  0.49032228  0.79635045  1  -1.253898  0  -0.238095  -0.599682  0  2.228318  0
O  O176  1  0.66135225  0.50315973  0.70295696  1  -1.245208  0  -0.226913  -0.589486  0  2.24667  0
O  O177  1  0.48001484  0.86179800  0.70437647  1  -1.254413  0  -0.246138  -0.612623  0  2.225611  0
O  O178  1  0.15433688  0.50579943  0.30164178  1  -1.216538  0  -0.201187  -0.541865  0  2.299436  0
O  O179  1  0.34255217  0.15604081  0.29539947  1  -1.248613  0  -0.227898  -0.591819  0  2.250171  0
O  O180  1  0.52017527  0.34233786  0.29768086  1  -1.261526  0  -0.243462  -0.608338  0  2.224117  0
O  O181  1  0.67207954  0.68217924  0.75053209  1  -1.614785  0  -0.390771  -1.275521  0  2.295586  0
O  O182  1  0.32930738  0.35177324  0.25052263  1  -1.610754  0  -0.391328  -1.275876  0  2.294339  0
O  O183  1  0.49268193  0.66930836  0.79689788  1  -1.238134  0  -0.220401  -0.577706  0  2.246388  0
O  O184  1  0.34431213  0.50882355  0.19846447  1  -1.220898  0  -0.20498  -0.558194  0  2.296693  0
O  O185  1  0.14960251  0.33642760  0.20473851  1  -1.245796  0  -0.237256  -0.596521  0  2.225652  0
O  O186  1  0.51411465  0.15960607  0.20586674  1  -1.23429  0  -0.220644  -0.578694  0  2.242051  0
O  O187  1  0.85037076  0.65845740  0.80129811  1  -1.215054  0  -0.205612  -0.5548  0  2.280806  0
O  O188  1  0.65993444  0.50278376  0.79637963  1  -1.245523  0  -0.220811  -0.579822  0  2.240683  0
O  O189  1  0.48442030  0.85883693  0.79941789  1  -1.250454  0  -0.237486  -0.597935  0  2.22602  0
O  O190  1  0.82571455  0.83901035  0.74818453  1  -1.335896  0  -0.574254  -0.993011  0  1.790765  0
O  O191  1  0.17064464  0.66227890  0.25208767  1  -1.359569  0  -0.57529  -0.995254  0  1.789951  0
F  F192  1  0.56653167  0.32232166  0.56052043  1  -0.628194  0  -0.125112  -0.180348  0  1.302854  0
F  F193  1  0.51798182  0.83739682  0.06904483  1  -0.602724  0  -0.110692  -0.128208  0  1.32157  0
F  F194  1  0.64739327  0.50902482  0.05888337  1  -0.604855  0  -0.108985  -0.125741  0  1.337593  0
F  F195  1  0.83988005  0.63748648  0.06173376  1  -0.597941  0  -0.110328  -0.127013  0  1.331959  0
F  F196  1  0.34271162  0.44413302  0.01699011  1  -0.620414  0  -0.111112  -0.14646  0  1.41534  0
F  F197  1  0.44945416  0.20704216  0.02536319  1  -0.618587  0  -0.109344  -0.145915  0  1.426669  0
F  F198  1  0.21148879  0.33374509  0.02324330  1  -0.621165  0  -0.110865  -0.147459  0  1.421535  0
F  F199  1  0.59547025  0.78747465  0.98438516  1  -0.603052  0  -0.107561  -0.130887  0  1.448788  0
F  F200  1  0.61541221  0.59139949  0.97471571  1  -0.595898  0  -0.107196  -0.130759  0  1.453104  0
F  F201  1  0.79392252  0.60864269  0.97639381  1  -0.598901  0  -0.108877  -0.131918  0  1.445671  0
F  F202  1  0.39137612  0.71972006  0.95475022  1  -0.607577  0  -0.101778  -0.164232  0  1.355473  0
F  F203  1  0.30772896  0.06328810  0.55040052  1  -0.634874  0  -0.138562  -0.195354  0  1.281755  0
F  F204  1  0.72018164  0.88355741  0.95981595  1  -0.613085  0  -0.100729  -0.161031  0  1.354529  0
F  F205  1  0.88977497  0.38421000  0.95615964  1  -0.608116  0  -0.102917  -0.165644  0  1.355053  0
F  F206  1  0.66421169  0.04863175  0.04722272  1  -0.60839  0  -0.111095  -0.170875  0  1.333861  0
F  F207  1  0.29038748  0.65492774  0.04265342  1  -0.60367  0  -0.110185  -0.169825  0  1.333071  0
F  F208  1  0.05168343  0.28032441  0.04543977  1  -0.607046  0  -0.112676  -0.175399  0  1.32731  0
F  F209  1  0.29744791  0.62766144  0.95354540  1  -0.601822  0  -0.107032  -0.16652  0  1.336247  0
F  F210  1  0.62782026  0.06941309  0.95873939  1  -0.60158  0  -0.108544  -0.168184  0  1.33517  0
F  F211  1  0.07569091  0.28949559  0.95676224  1  -0.601461  0  -0.10804  -0.167937  0  1.336099  0
F  F212  1  0.69879565  0.87307370  0.04887682  1  -0.601808  0  -0.098849  -0.156893  0  1.376563  0
F  F213  1  0.43182618  0.68894143  0.04305870  1  -0.6005  0  -0.099043  -0.157614  0  1.375159  0
F  F214  1  0.00772513  0.67791755  0.55111412  1  -0.631293  0  -0.133842  -0.183444  0  1.280811  0
F  F215  1  0.87639034  0.42158987  0.04460664  1  -0.600061  0  -0.098729  -0.159652  0  1.379491  0
F  F216  1  0.32084198  0.99070159  0.44368990  1  -0.631984  0  -0.140483  -0.193801  0  1.258564  0
F  F217  1  0.68189975  0.34455908  0.45955727  1  -0.622714  0  -0.132806  -0.188338  0  1.279251  0
F  F218  1  0.93569833  0.68887292  0.44509643  1  -0.629563  0  -0.132297  -0.184811  0  1.293943  0
F  F219  1  0.41282452  0.40086174  0.93118310  1  -0.601254  0  -0.113316  -0.136489  0  1.333021  0
F  F220  1  0.40062695  0.18072382  0.94041240  1  -0.602938  0  -0.11299  -0.134784  0  1.347268  0
F  F221  1  0.18927974  0.40397955  0.93743485  1  -0.604138  0  -0.11358  -0.136271  0  1.350049  0
