# generated using pymatgen
data_ZnH7C12N5O8
_symmetry_space_group_name_H-M   'P 1'
_cell_length_a   9.59985011
_cell_length_b   10.98370422
_cell_length_c   11.05103089
_cell_angle_alpha   84.39260693
_cell_angle_beta   90.13146553
_cell_angle_gamma   95.54992175
_symmetry_Int_Tables_number   1
_chemical_formula_structural   ZnH7C12N5O8
_chemical_formula_sum   'Zn2 H14 C24 N10 O16'
_cell_volume   1154.19966612
_cell_formula_units_Z   2
loop_
 _symmetry_equiv_pos_site_id
 _symmetry_equiv_pos_as_xyz
  1  'x, y, z'
loop_
 _atom_site_type_symbol
 _atom_site_label
 _atom_site_symmetry_multiplicity
 _atom_site_fract_x
 _atom_site_fract_y
 _atom_site_fract_z
 _atom_site_occupancy
 _atom_site_pbe_bader_charge
 _atom_site_pbe_bader_spin_density
 _atom_site_pbe_cm5_charge
 _atom_site_pbe_ddec_charge
 _atom_site_pbe_ddec_spin_density
 _atom_site_pbe_ddec_sum_bond_order
 _atom_site_pbe_magmom
Zn  Zn0  1  0.63983760  0.51090857  0.49408485  1  1.295938  0  0.679611  0.815553  0  2.482988  0
Zn  Zn1  1  0.34973332  0.48347544  0.49826803  1  1.279507  0  0.674634  0.815078  0  2.395668  0
H  H2  1  0.28751233  0.86237333  0.49498897  1  0.099477  0  0.102225  0.109076  0  1.020358  0
H  H3  1  0.28637714  0.09635128  0.49041999  1  0.076476  0  0.098801  0.089761  0  1.05743  0
H  H4  1  0.14865271  0.60648122  0.34026407  1  0.187265  0  0.13873  0.126777  0  0.975142  0
H  H5  1  0.10414719  0.37040119  0.65906508  1  0.17041  0  0.135732  0.120019  0  0.98568  0
H  H6  1  0.88789835  0.63338717  0.34588242  1  0.114953  0  0.140464  0.119903  0  0.951839  0
H  H7  1  0.84123971  0.38847696  0.65781358  1  0.155703  0  0.14197  0.126718  0  0.954142  0
H  H8  1  0.02853595  0.87141968  0.59653808  1  0.51151  0  0.310584  0.314358  0  0.97311  0
H  H9  1  0.10080854  0.02115259  0.55396142  1  0.447085  0  0.313175  0.303063  0  0.95095  0
H  H10  1  0.01890999  0.23103548  0.32838575  1  0.52369  0  0.306602  0.313474  0  0.985477  0
H  H11  1  0.09351965  0.09500572  0.36725556  1  0.454809  0  0.319278  0.3132  0  0.925447  0
H  H12  1  0.82582023  0.52692120  0.06342123  1  0.450879  0  0.314038  0.312256  0  0.931173  0
H  H13  1  0.73958433  0.54061841  0.19862968  1  0.484825  0  0.295995  0.300321  0  1.019696  0
H  H14  1  0.73239751  0.55272813  0.77571246  1  0.525672  0  0.296056  0.298719  0  1.014718  0
H  H15  1  0.79515197  0.62387497  0.89888038  1  0.444901  0  0.309594  0.299632  0  0.941197  0
C  C16  1  0.48598816  0.46724144  0.73498096  1  1.540025  0  0.219638  0.618898  0  4.133587  0
C  C17  1  0.48658186  0.51573501  0.25645549  1  1.564685  0  0.218823  0.617152  0  4.136729  0
C  C18  1  0.50791762  0.73559816  0.50570368  1  1.573888  0  0.215457  0.598669  0  4.159474  0
C  C19  1  0.49898702  0.26275880  0.47551028  1  1.578266  0  0.215903  0.597967  0  4.160236  0
C  C20  1  0.77197794  0.91216433  0.54057060  1  0.364794  0  0.071592  -0.078913  0  3.878401  0
C  C21  1  0.76307599  0.14214530  0.40882685  1  0.347175  0  0.068757  -0.085218  0  3.871286  0
C  C22  1  0.89754590  0.98181582  0.50661135  1  0.458039  0  0.121029  0.190483  0  4.035717  0
C  C23  1  0.89300492  0.09610835  0.42779987  1  0.47456  0  0.121504  0.191491  0  4.042592  0
C  C24  1  0.63491415  0.07623274  0.45759692  1  0.033829  0  0.008077  0.033224  0  3.960169  0
C  C25  1  0.63802406  0.95074068  0.50187843  1  0.013503  0  0.006722  0.029307  0  3.963381  0
C  C26  1  0.51011042  0.87239235  0.50612910  1  -0.014844  0  -0.009825  -0.058599  0  3.915266  0
C  C27  1  0.50509579  0.12832866  0.46542132  1  0.004073  0  -0.008856  -0.052964  0  3.915253  0
C  C28  1  0.38354632  0.92394245  0.49411046  1  0.061306  0  -0.087398  -0.09212  0  3.98886  0
C  C29  1  0.38210377  0.05149106  0.48432316  1  -0.044253  0  -0.086443  -0.092985  0  3.999944  0
C  C30  1  0.36949935  0.43348900  0.94238449  1  0.266057  0  0.071213  -0.004117  0  3.951106  0
C  C31  1  0.36515285  0.46010987  0.06220570  1  0.216618  0  0.078414  0.009612  0  3.929737  0
C  C32  1  0.48763508  0.50285535  0.12334117  1  0.123738  0  -0.022564  -0.187604  0  3.909793  0
C  C33  1  0.49201686  0.46560150  0.86977989  1  0.105231  0  -0.024131  -0.18366  0  3.924172  0
C  C34  1  0.61450828  0.52148668  0.05609143  1  0.485575  0  0.125228  0.238438  0  3.985478  0
C  C35  1  0.61415883  0.51303459  0.92660535  1  0.490962  0  0.1181  0.22073  0  3.994757  0
C  C36  1  0.07932808  0.56034650  0.41196658  1  0.527469  0  0.078078  0.069625  0  3.846665  0
C  C37  1  0.05440286  0.42667616  0.58786838  1  0.513731  0  0.081141  0.072742  0  3.835499  0
C  C38  1  0.93684874  0.57346719  0.41440727  1  0.507677  0  0.078299  0.069806  0  3.872937  0
C  C39  1  0.91121141  0.43787165  0.58817931  1  0.529627  0  0.080094  0.073582  0  3.839382  0
N  N40  1  0.85410666  0.51135872  0.50158220  1  -1.222121  0  -0.300843  -0.162395  0  3.537331  0
N  N41  1  0.13644029  0.48719166  0.49892277  1  -1.225117  0  -0.295194  -0.147269  0  3.494963  0
N  N42  1  0.77527194  0.81674273  0.64025686  1  0.319752  0  0.045865  0.534989  0  4.203069  0
N  N43  1  0.75464608  0.24430721  0.31627057  1  0.330994  0  0.046938  0.53639  0  4.201986  0
N  N44  1  0.02728537  0.95090270  0.54042965  1  -1.226053  0  -0.573285  -0.571799  0  3.355839  0
N  N45  1  0.01799422  0.15034536  0.38272888  1  -1.233722  0  -0.565824  -0.562741  0  3.360335  0
N  N46  1  0.24881063  0.36200250  0.89332858  1  0.36655  0  0.046176  0.51968  0  4.240552  0
N  N47  1  0.23006990  0.43149861  0.12964427  1  0.407434  0  0.061868  0.536666  0  4.23527  0
N  N48  1  0.74121142  0.55302289  0.10580108  1  -1.212143  0  -0.584603  -0.588249  0  3.335151  0
N  N49  1  0.73854834  0.55018917  0.86801637  1  -1.264986  0  -0.590177  -0.590912  0  3.35993  0
O  O50  1  0.60318048  0.48373204  0.67729343  1  -1.175861  0  -0.310516  -0.544782  0  2.389295  0
O  O51  1  0.60531348  0.52532196  0.30986406  1  -1.165182  0  -0.308866  -0.539497  0  2.388567  0
O  O52  1  0.36736059  0.45750768  0.68376759  1  -1.157686  0  -0.311214  -0.535135  0  2.353863  0
O  O53  1  0.36986355  0.51538342  0.31046345  1  -1.164867  0  -0.311035  -0.545029  0  2.364545  0
O  O54  1  0.62500253  0.69324971  0.48939543  1  -1.163889  0  -0.318607  -0.55534  0  2.398624  0
O  O55  1  0.61499874  0.32499555  0.49278117  1  -1.161903  0  -0.315401  -0.559124  0  2.415181  0
O  O56  1  0.39001477  0.67195149  0.51501052  1  -1.169499  0  -0.311367  -0.539845  0  2.309643  0
O  O57  1  0.37929499  0.30355889  0.47430945  1  -1.15673  0  -0.310874  -0.527618  0  2.299182  0
O  O58  1  0.88214194  0.75840614  0.65323761  1  -0.51967  0  -0.160346  -0.379691  0  1.918447  0
O  O59  1  0.67625424  0.80028418  0.71363177  1  -0.446001  0  -0.125944  -0.321639  0  1.912212  0
O  O60  1  0.85918322  0.32242334  0.29989494  1  -0.500384  0  -0.15126  -0.376318  0  1.972942  0
O  O61  1  0.64799601  0.24763220  0.25313291  1  -0.441284  0  -0.125117  -0.319553  0  1.916967  0
O  O62  1  0.27122693  0.26523242  0.85106172  1  -0.438594  0  -0.143132  -0.334178  0  1.881217  0
O  O63  1  0.13175410  0.40097637  0.89940264  1  -0.460313  0  -0.153858  -0.359727  0  1.904064  0
O  O64  1  0.15547052  0.51628693  0.13427449  1  -0.427001  0  -0.123238  -0.322694  0  1.923448  0
O  O65  1  0.20071726  0.32388495  0.17317201  1  -0.436553  0  -0.126485  -0.317647  0  1.890681  0
