# generated using pymatgen
data_Al2H3C24S6(NO6)3
_symmetry_space_group_name_H-M   'P 1'
_cell_length_a   4.07500303
_cell_length_b   20.09788808
_cell_length_c   20.09999200
_cell_angle_alpha   120.00000194
_cell_angle_beta   89.98736466
_cell_angle_gamma   90.00700515
_symmetry_Int_Tables_number   1
_chemical_formula_structural   Al2H3C24S6(NO6)3
_chemical_formula_sum   'Al2 H3 C24 S6 N3 O18'
_cell_volume   1425.62353467
_cell_formula_units_Z   1
loop_
 _symmetry_equiv_pos_site_id
 _symmetry_equiv_pos_as_xyz
  1  'x, y, z'
loop_
 _atom_site_type_symbol
 _atom_site_label
 _atom_site_symmetry_multiplicity
 _atom_site_fract_x
 _atom_site_fract_y
 _atom_site_fract_z
 _atom_site_occupancy
 _atom_site_pbe_bader_charge
 _atom_site_pbe_bader_spin_density
 _atom_site_pbe_cm5_charge
 _atom_site_pbe_ddec_charge
 _atom_site_pbe_ddec_spin_density
 _atom_site_pbe_ddec_sum_bond_order
 _atom_site_pbe_magmom
Al  Al0  1  0.93150542  0.49998346  0.49997806  1  2.509495  0  0.437449  1.62091  0  2.540322  0
Al  Al1  1  0.00492809  0.16668132  0.83334237  1  2.509364  0  0.432889  1.608195  0  2.554045  0
H  H2  1  0.20380600  0.18996871  0.62999656  1  0.135735  0  0.12283  0.152663  0  0.961123  0
H  H3  1  0.20363201  0.93999831  0.81005978  1  0.080506  0  0.122798  0.152402  0  0.960944  0
H  H4  1  0.20361476  0.37005313  0.06002879  1  0.120117  0  0.122823  0.152478  0  0.961047  0
C  C5  1  0.43234558  0.43771851  0.38306019  1  1.626078  0  0.281688  0.685835  0  4.100114  0
C  C6  1  0.43216723  0.44532471  0.56224191  1  1.715721  0  0.281774  0.685836  0  4.100761  0
C  C7  1  0.43227202  0.61691042  0.55465176  1  1.718827  0  0.282049  0.686095  0  4.100144  0
C  C8  1  0.50141444  0.22275041  0.77242161  1  1.595137  0  0.266872  0.664795  0  4.101251  0
C  C9  1  0.50132540  0.04967923  0.77728321  1  1.622702  0  0.266469  0.663909  0  4.101509  0
C  C10  1  0.50126294  0.22760766  0.95033102  1  1.548696  0  0.266616  0.664531  0  4.100997  0
C  C11  1  0.57080590  0.42365735  0.67552010  1  0.397365  0  0.068442  -0.002324  0  4.014069  0
C  C12  1  0.33363777  0.24422950  0.66239875  1  0.054164  0  -0.091098  -0.139777  0  3.982613  0
C  C13  1  0.42910524  0.40183228  0.60490743  1  -0.211193  0  0.004317  -0.140992  0  3.894937  0
C  C14  1  0.48524096  0.26671561  0.73209063  1  -0.186034  0  -0.01991  -0.131818  0  3.967213  0
C  C15  1  0.37615707  0.30102355  0.64128553  1  -0.147008  0  -0.027587  -0.029206  0  4.088028  0
C  C16  1  0.54692447  0.36607722  0.69648856  1  -0.132765  0  -0.022163  -0.079525  0  4.119969  0
C  C17  1  0.57093631  0.75190038  0.57637966  1  0.379668  0  0.068466  -0.002183  0  4.01475  0
C  C18  1  0.33353699  0.91815276  0.75580758  1  0.048917  0  -0.090994  -0.139133  0  3.981946  0
C  C19  1  0.42920684  0.70307230  0.59817091  1  -0.213634  0  0.004168  -0.141226  0  3.895236  0
C  C20  1  0.48523198  0.96538272  0.73333842  1  -0.194147  0  -0.019778  -0.131924  0  3.967714  0
C  C21  1  0.37613330  0.84024787  0.69900579  1  -0.113524  0  -0.027661  -0.029191  0  4.087525  0
C  C22  1  0.54698023  0.83043803  0.63396828  1  -0.150173  0  -0.02224  -0.079918  0  4.120153  0
C  C23  1  0.57094170  0.32443838  0.24807598  1  0.386954  0  0.068367  -0.002656  0  4.014682  0
C  C24  1  0.33351209  0.33763629  0.08186068  1  0.054575  0  -0.091235  -0.139478  0  3.98273  0
C  C25  1  0.42928747  0.39506198  0.29690359  1  -0.102748  0  0.004297  -0.140925  0  3.895383  0
C  C26  1  0.48512155  0.26793372  0.03462136  1  -0.106064  0  -0.019953  -0.132215  0  3.967844  0
C  C27  1  0.37613627  0.35873037  0.15975309  1  -0.16866  0  -0.027581  -0.029148  0  4.087726  0
C  C28  1  0.54695348  0.30349795  0.16954802  1  -0.146821  0  -0.021979  -0.079302  0  4.119588  0
S  S29  1  0.26146857  0.31119863  0.56368653  1  0.314835  0  0.139427  0.2076  0  2.743023  0
S  S30  1  0.67206068  0.35662201  0.77247415  1  0.346837  0  0.125245  0.195318  0  2.858994  0
S  S31  1  0.26143522  0.75243728  0.68878747  1  0.332398  0  0.139616  0.207713  0  2.742904  0
S  S32  1  0.67209518  0.91590375  0.64344735  1  0.351576  0  0.125276  0.195572  0  2.859091  0
S  S33  1  0.26151328  0.43632206  0.24755642  1  0.308125  0  0.139617  0.207629  0  2.742907  0
S  S34  1  0.67197568  0.22751602  0.08408311  1  0.349572  0  0.125275  0.19555  0  2.858834  0
N  N35  1  0.73203182  0.49620126  0.72201481  1  0.324052  0  0.052855  0.52594  0  4.227609  0
N  N36  1  0.73229041  0.72589546  0.50385765  1  0.340399  0  0.052809  0.525398  0  4.226573  0
N  N37  1  0.73228036  0.27791929  0.27407173  1  0.35768  0  0.052764  0.525941  0  4.226172  0
O  O38  1  0.67035012  0.58581503  0.56954768  1  -1.237141  0  -0.222248  -0.573344  0  2.376185  0
O  O39  1  0.67046753  0.48371077  0.41413746  1  -1.241781  0  -0.222  -0.573264  0  2.375759  0
O  O40  1  0.67029304  0.43041033  0.51624611  1  -1.238018  0  -0.22215  -0.573075  0  2.376084  0
O  O41  1  0.19475259  0.58300914  0.50981149  1  -1.241828  0  -0.223769  -0.58023  0  2.407849  0
O  O42  1  0.19457741  0.49015709  0.57317499  1  -1.239205  0  -0.223528  -0.580169  0  2.408233  0
O  O43  1  0.19476334  0.42678039  0.41696773  1  -1.234939  0  -0.223653  -0.580144  0  2.407562  0
O  O44  1  0.74221812  0.18144295  0.91882659  1  -1.2525  0  -0.238875  -0.596276  0  2.352581  0
O  O45  1  0.74235805  0.23741207  0.81857297  1  -1.248713  0  -0.239052  -0.596376  0  2.3521  0
O  O46  1  0.74227763  0.08118285  0.76261432  1  -1.246646  0  -0.238863  -0.595877  0  2.352195  0
O  O47  1  0.27363726  0.24151816  0.91523107  1  -1.256466  0  -0.241301  -0.592862  0  2.330511  0
O  O48  1  0.27360893  0.08478797  0.82628648  1  -1.261282  0  -0.241281  -0.592674  0  2.330775  0
O  O49  1  0.27377060  0.17372900  0.75851818  1  -1.258812  0  -0.241382  -0.592991  0  2.331198  0
O  O50  1  0.88216479  0.50399792  0.77958454  1  -0.456911  0  -0.142165  -0.334444  0  1.879716  0
O  O51  1  0.71272001  0.54541808  0.70210566  1  -0.437356  0  -0.122842  -0.307804  0  1.918149  0
O  O52  1  0.88238802  0.77570074  0.49608249  1  -0.440601  0  -0.142341  -0.334177  0  1.878067  0
O  O53  1  0.71313561  0.65676937  0.45463250  1  -0.449896  0  -0.122597  -0.307521  0  1.918454  0
O  O54  1  0.88235376  0.22034104  0.22426339  1  -0.465208  0  -0.142394  -0.334578  0  1.878171  0
O  O55  1  0.71312739  0.29781253  0.34319135  1  -0.449425  0  -0.122582  -0.307564  0  1.918278  0
