# generated using pymatgen
data_Al2H25C32NO13
_symmetry_space_group_name_H-M   'P 1'
_cell_length_a   6.66325599
_cell_length_b   18.72489695
_cell_length_c   22.30768306
_cell_angle_alpha   99.32152705
_cell_angle_beta   89.99796394
_cell_angle_gamma   90.00106903
_symmetry_Int_Tables_number   1
_chemical_formula_structural   Al2H25C32NO13
_chemical_formula_sum   'Al4 H50 C64 N2 O26'
_cell_volume   2746.54873380
_cell_formula_units_Z   2
loop_
 _symmetry_equiv_pos_site_id
 _symmetry_equiv_pos_as_xyz
  1  'x, y, z'
loop_
 _atom_site_type_symbol
 _atom_site_label
 _atom_site_symmetry_multiplicity
 _atom_site_fract_x
 _atom_site_fract_y
 _atom_site_fract_z
 _atom_site_occupancy
 _atom_site_pbe_bader_charge
 _atom_site_pbe_bader_spin_density
 _atom_site_pbe_cm5_charge
 _atom_site_pbe_ddec_charge
 _atom_site_pbe_ddec_spin_density
 _atom_site_pbe_ddec_sum_bond_order
 _atom_site_pbe_magmom
Al  Al0  1  0.13555877  0.49799422  0.49849764  1  2.502026  0  0.401903  1.643802  0  2.58253  0
Al  Al1  1  0.63557236  0.50205223  0.50149089  1  2.502314  0  0.402006  1.643342  0  2.58327  0
Al  Al2  1  0.64440709  0.00067432  0.00241887  1  2.501489  0  0.401565  1.644573  0  2.578085  0
Al  Al3  1  0.14445111  0.99934261  0.99757937  1  2.50096  0  0.401611  1.644368  0  2.578161  0
H  H4  1  0.04442887  0.23961070  0.04538661  1  0.046014  0  0.108827  0.112158  0  0.984529  0
H  H5  1  0.54494878  0.76046605  0.95459426  1  0.044831  0  0.108598  0.111752  0  0.984668  0
H  H6  1  0.05978005  0.42356752  0.22009029  1  0.109764  0  0.102756  0.105052  0  1.004371  0
H  H7  1  0.56010370  0.57648975  0.77991342  1  0.10961  0  0.102736  0.104845  0  1.004635  0
H  H8  1  0.08369829  0.35501296  0.11798052  1  0.07112  0  0.106245  0.107351  0  0.989253  0
H  H9  1  0.58415451  0.64503531  0.88200646  1  0.072604  0  0.106288  0.107401  0  0.989014  0
H  H10  1  0.79667754  0.13725316  0.18752839  1  0.082978  0  0.10317  0.103433  0  1.016173  0
H  H11  1  0.29655438  0.86273855  0.81250073  1  0.083687  0  0.103212  0.103536  0  1.016171  0
H  H12  1  0.76028003  0.26277976  0.45556622  1  0.081535  0  0.103936  0.104711  0  1.008138  0
H  H13  1  0.25976995  0.73720054  0.54448332  1  0.082904  0  0.103978  0.10463  0  1.008829  0
H  H14  1  0.77131809  0.13838125  0.27598536  1  0.036201  0  0.099004  0.096227  0  1.018868  0
H  H15  1  0.27146402  0.86164446  0.72403703  1  0.035802  0  0.09925  0.09638  0  1.018596  0
H  H16  1  0.71122259  0.14572477  0.38539610  1  0.060992  0  0.096287  0.089721  0  1.001403  0
H  H17  1  0.21112140  0.85429630  0.61463981  1  0.060842  0  0.096295  0.089803  0  1.00144  0
H  H18  1  0.99566466  0.42925721  0.32922624  1  0.043715  0  0.104807  0.110037  0  1.006745  0
H  H19  1  0.49570295  0.57077382  0.67079625  1  0.044015  0  0.10481  0.110168  0  1.006753  0
H  H20  1  0.88291361  0.68201224  0.14243308  1  0.107966  0  0.109055  0.12202  0  0.982095  0
H  H21  1  0.38274152  0.31798207  0.85755992  1  0.110539  0  0.109048  0.122269  0  0.981671  0
H  H22  1  0.18691480  0.82008345  0.24586338  1  0.050604  0  0.099569  0.104712  0  0.993352  0
H  H23  1  0.68700242  0.17994271  0.75418831  1  0.050109  0  0.099562  0.10458  0  0.993601  0
H  H24  1  0.21303211  0.75091904  0.18217575  1  0.025141  0  0.100548  0.112236  0  0.973015  0
H  H25  1  0.71291672  0.24911945  0.81787611  1  0.025072  0  0.100523  0.112033  0  0.973142  0
H  H26  1  0.16207041  0.65919354  0.23805196  1  0.06368  0  0.112473  0.065667  0  0.986525  0
H  H27  1  0.66219691  0.34082369  0.76196600  1  0.062394  0  0.112428  0.064505  0  0.985308  0
H  H28  1  0.63934467  0.83759002  0.24721042  1  0.036633  0  0.096372  0.098832  0  0.978611  0
H  H29  1  0.13944639  0.16239467  0.75270103  1  0.037182  0  0.096547  0.098861  0  0.978666  0
H  H30  1  0.86931732  0.87492989  0.27687157  1  0.060936  0  0.09563  0.09571  0  0.976702  0
H  H31  1  0.36950709  0.12509367  0.72307911  1  0.060179  0  0.095464  0.095384  0  0.976875  0
H  H32  1  0.63180833  0.75933849  0.31825440  1  0.03282  0  0.098118  0.097131  0  1.044291  0
H  H33  1  0.13200356  0.24069451  0.68169372  1  0.032973  0  0.098162  0.097228  0  1.043807  0
H  H34  1  0.64711261  0.72365605  0.16204906  1  0.070678  0  0.104767  0.116594  0  0.965011  0
H  H35  1  0.14696526  0.27632231  0.83790219  1  0.07073  0  0.104754  0.116639  0  0.964993  0
H  H36  1  0.61795078  0.66336508  0.24632540  1  0.103638  0  0.128489  0.104268  0  0.968006  0
H  H37  1  0.11796784  0.33661133  0.75361581  1  0.103411  0  0.128519  0.104451  0  0.967877  0
H  H38  1  0.84841339  0.80077295  0.35234344  1  0.0371  0  0.096637  0.098487  0  1.002187  0
H  H39  1  0.34867616  0.19927334  0.64761990  1  0.016908  0  0.096557  0.09842  0  1.002425  0
H  H40  1  0.12113328  0.80903780  0.36210713  1  0.026116  0  0.094692  0.05046  0  1.025945  0
H  H41  1  0.36949389  0.82650973  0.34029970  1  0.009549  0  0.086139  0.036129  0  0.999096  0
H  H42  1  0.49540472  0.73839347  0.40845282  1  0.053219  0  0.093264  0.131829  0  1.006263  0
H  H43  1  0.36067429  0.81278125  0.44979281  1  0.020558  0  0.087892  0.116695  0  1.002927  0
H  H44  1  0.24394486  0.72590662  0.43040237  1  0.048912  0  0.094308  0.133003  0  1.004394  0
H  H45  1  0.62134519  0.19089971  0.63796362  1  0.026531  0  0.094711  0.050625  0  1.025795  0
H  H46  1  0.86980476  0.17351891  0.65972724  1  0.007138  0  0.086227  0.036246  0  0.998976  0
H  H47  1  0.99536258  0.26162486  0.59154737  1  0.053832  0  0.093272  0.131812  0  1.006265  0
H  H48  1  0.86072770  0.18721129  0.55022771  1  0.020088  0  0.087965  0.116716  0  1.002875  0
H  H49  1  0.74387163  0.27406545  0.56962193  1  0.049307  0  0.094373  0.133038  0  1.004627  0
H  H50  1  0.39350489  0.46489277  0.42236398  1  0.640397  0  0.361013  0.442384  0  0.834873  0
H  H51  1  0.89335910  0.53492318  0.57769691  1  0.638812  0  0.360911  0.442089  0  0.835212  0
H  H52  1  0.38514154  0.04601491  0.07377777  1  0.632768  0  0.356361  0.434107  0  0.849685  0
H  H53  1  0.88513295  0.95407883  0.92617805  1  0.632934  0  0.356123  0.433848  0  0.849674  0
C  C54  1  0.38516826  0.42123313  0.57626652  1  1.676336  0  0.27456  0.711021  0  4.176049  0
C  C55  1  0.88472654  0.57876598  0.42372330  1  1.670325  0  0.274927  0.711091  0  4.177144  0
C  C56  1  0.38056848  0.61154964  0.57184459  1  1.589664  0  0.278509  0.664888  0  4.078585  0
C  C57  1  0.88103758  0.38848232  0.42813275  1  1.585783  0  0.278039  0.664249  0  4.079409  0
C  C58  1  0.02389230  0.30681171  0.13331821  1  -0.022656  0  -0.084656  -0.123747  0  3.991344  0
C  C59  1  0.52431628  0.69325131  0.86667740  1  -0.024988  0  -0.084569  -0.123753  0  3.991818  0
C  C60  1  0.91493566  0.18254094  0.11315517  1  -0.037083  0  -0.014066  -0.03308  0  4.01193  0
C  C61  1  0.41516394  0.81748445  0.88684616  1  -0.037764  0  -0.014235  -0.033307  0  4.012735  0
C  C62  1  0.79247596  0.25878125  0.40721167  1  0.00838  0  -0.089739  -0.10685  0  4.010941  0
C  C63  1  0.29210553  0.74122549  0.59282984  1  0.00184  0  -0.089622  -0.106564  0  4.01129  0
C  C64  1  0.76316314  0.19339156  0.36756825  1  -0.052845  0  -0.099838  -0.090929  0  4.083893  0
C  C65  1  0.26305499  0.80663462  0.63247196  1  -0.051262  0  -0.099838  -0.091272  0  4.084206  0
C  C66  1  0.79725190  0.18956969  0.30590500  1  -0.063831  0  -0.092434  -0.132318  0  4.009638  0
C  C67  1  0.29723165  0.81045180  0.69412336  1  -0.063407  0  -0.092631  -0.132008  0  4.009964  0
C  C68  1  0.86443852  0.25038659  0.28138200  1  -0.016087  0  -0.001625  0.034324  0  3.948592  0
C  C69  1  0.36444780  0.74963861  0.71863275  1  -0.015702  0  -0.001782  0.033989  0  3.948446  0
C  C70  1  0.90159131  0.31645658  0.32187307  1  0.057517  0  -0.000848  0.057467  0  3.974341  0
C  C71  1  0.40156350  0.68355243  0.67813654  1  0.057146  0  -0.000715  0.057627  0  3.972967  0
C  C72  1  0.89918316  0.24786547  0.21677172  1  0.040771  0  -0.000949  0.03671  0  3.952055  0
C  C73  1  0.39929376  0.75217312  0.78324216  1  0.040835  0  -0.000835  0.036862  0  3.95229  0
C  C74  1  0.97645630  0.31043676  0.19558805  1  -0.030085  0  -0.003185  0.07953  0  4.005321  0
C  C75  1  0.47671677  0.68960590  0.80441298  1  -0.030367  0  -0.003535  0.078765  0  4.00636  0
C  C76  1  0.00728723  0.37575047  0.23763235  1  -0.079044  0  -0.085097  -0.119795  0  4.002078  0
C  C77  1  0.50752627  0.62428793  0.76237925  1  -0.0788  0  -0.084914  -0.119244  0  4.002873  0
C  C78  1  0.97070785  0.37880433  0.29815097  1  -0.005855  0  -0.08969  -0.127134  0  3.998343  0
C  C79  1  0.47075472  0.62121222  0.70186543  1  -0.004807  0  -0.089728  -0.127191  0  3.997916  0
C  C80  1  0.86211738  0.18532295  0.17359953  1  -0.047437  0  -0.084928  -0.151031  0  3.96025  0
C  C81  1  0.36217959  0.81468929  0.82641472  1  -0.049099  0  -0.084733  -0.150892  0  3.96109  0
C  C82  1  0.00014428  0.24336348  0.09284682  1  -0.045155  0  -0.087562  -0.10792  0  4.011091  0
C  C83  1  0.50060402  0.75669111  0.90713773  1  -0.042666  0  -0.087174  -0.106962  0  4.011359  0
C  C84  1  0.86237894  0.31898140  0.38476025  1  -0.065167  0  -0.008005  -0.072942  0  3.94663  0
C  C85  1  0.36216416  0.68102071  0.61525123  1  -0.062334  0  -0.007984  -0.073032  0  3.945496  0
C  C86  1  0.79559694  0.71252439  0.17978295  1  -0.076418  0  -0.149731  -0.240437  0  3.822664  0
C  C87  1  0.29550089  0.28746335  0.82019035  1  -0.079912  0  -0.149685  -0.24081  0  3.822863  0
C  C88  1  0.12085476  0.76924374  0.22257981  1  -0.030226  0  -0.158769  -0.274159  0  3.85127  0
C  C89  1  0.62086283  0.23078423  0.77744604  1  -0.029295  0  -0.158846  -0.275876  0  3.849592  0
C  C90  1  0.12030914  0.71159605  0.26470827  1  0.517068  0  0.006413  0.127508  0  3.815898  0
C  C91  1  0.62042394  0.28842665  0.73530939  1  0.51867  0  0.006371  0.134343  0  3.803655  0
C  C92  1  0.88764088  0.62408129  0.37715066  1  0.335188  0  -0.034395  -0.182199  0  3.940768  0
C  C93  1  0.38784578  0.37593723  0.62284558  1  0.334299  0  -0.034922  -0.182889  0  3.940553  0
C  C94  1  0.90391640  0.78504129  0.20328713  1  0.133617  0  0.00363  0.191478  0  3.891699  0
C  C95  1  0.40388629  0.21496777  0.79669657  1  0.133779  0  0.003662  0.192114  0  3.89109  0
C  C96  1  0.77325053  0.66716601  0.23095768  1  0.219288  0  0.020078  -0.019585  0  3.667352  0
C  C97  1  0.27323998  0.33281419  0.76900635  1  0.220241  0  0.020055  -0.020138  0  3.668324  0
C  C98  1  0.90023834  0.70180891  0.28749953  1  0.09619  0  0.007773  0.083423  0  3.849063  0
C  C99  1  0.40037418  0.29822315  0.71250204  1  0.094981  0  0.007735  0.081838  0  3.848128  0
C  C100  1  0.78642022  0.77417076  0.30898449  1  -0.022812  0  -0.154953  -0.195163  0  3.849825  0
C  C101  1  0.28660386  0.22584894  0.69098366  1  -0.002738  0  -0.154914  -0.19539  0  3.849508  0
C  C102  1  0.79184376  0.82375066  0.26021749  1  -0.045008  0  -0.153577  -0.191382  0  3.857769  0
C  C103  1  0.29197384  0.17625805  0.73974553  1  -0.043651  0  -0.153475  -0.190991  0  3.857589  0
C  C104  1  0.89474258  0.65844842  0.33552886  1  -0.568692  0  -0.02467  -0.034967  0  4.0471  0
C  C105  1  0.39496686  0.34158235  0.66447506  1  -0.567956  0  -0.024094  -0.034446  0  4.046161  0
C  C106  1  0.90441899  0.83082878  0.15671792  1  -0.480251  0  -0.026826  -0.044663  0  4.029401  0
C  C107  1  0.40429167  0.16917244  0.84325803  1  -0.481027  0  -0.027102  -0.044999  0  4.030217  0
C  C108  1  0.90224266  0.87072226  0.11889349  1  0.204603  0  -0.046798  -0.205128  0  3.977589  0
C  C109  1  0.40212178  0.12929740  0.88108712  1  0.204674  0  -0.046715  -0.205068  0  3.978047  0
C  C110  1  0.39858906  0.88701752  0.92991639  1  1.579102  0  0.277928  0.664495  0  4.076043  0
C  C111  1  0.89831506  0.11300308  0.07007835  1  1.579745  0  0.278112  0.664524  0  4.073755  0
C  C112  1  0.39828169  0.07963629  0.92439377  1  1.650576  0  0.269951  0.714345  0  4.177158  0
C  C113  1  0.89845584  0.92037900  0.07559821  1  1.668322  0  0.269896  0.71458  0  4.177478  0
C  C114  1  0.27169724  0.78525285  0.35566260  1  0.402346  0  -0.076111  0.081881  0  3.95454  0
C  C115  1  0.34757959  0.76451364  0.41465146  1  -0.04028  0  -0.244426  -0.39797  0  3.963092  0
C  C116  1  0.77186377  0.21473598  0.64436821  1  0.404047  0  -0.076064  0.081363  0  3.954872  0
C  C117  1  0.84759348  0.23548125  0.58536018  1  -0.040041  0  -0.24446  -0.397704  0  3.963123  0
N  N118  1  0.83265100  0.58820729  0.21043569  1  0.443094  0  0.051836  0.523869  0  4.13802  0
N  N119  1  0.33259977  0.41179433  0.78956213  1  0.442685  0  0.051835  0.523847  0  4.136686  0
O  O120  1  0.55431357  0.58638205  0.55722610  1  -1.259474  0  -0.23089  -0.591138  0  2.309407  0
O  O121  1  0.05483969  0.41324187  0.44316250  1  -1.259325  0  -0.230416  -0.590609  0  2.309294  0
O  O122  1  0.21378211  0.43686509  0.55695054  1  -1.231304  0  -0.227467  -0.576262  0  2.27756  0
O  O123  1  0.71333579  0.56373957  0.44342379  1  -1.226723  0  -0.227697  -0.576424  0  2.278253  0
O  O124  1  0.21480712  0.58298942  0.55269862  1  -1.257463  0  -0.229133  -0.590924  0  2.337577  0
O  O125  1  0.71531085  0.41746439  0.44686301  1  -1.255364  0  -0.229153  -0.590745  0  2.337459  0
O  O126  1  0.05543102  0.55738288  0.43931715  1  -1.228963  0  -0.228845  -0.582441  0  2.292028  0
O  O127  1  0.55607848  0.44202585  0.56029472  1  -1.230301  0  -0.228824  -0.582397  0  2.290972  0
O  O128  1  0.38732726  0.49122808  0.46347513  1  -1.439608  0  -0.446942  -0.99581  0  2.200261  0
O  O129  1  0.88732798  0.50880185  0.53651073  1  -1.43831  0  -0.446833  -0.995634  0  2.201238  0
O  O130  1  0.22530196  0.05886695  0.93858719  1  -1.216473  0  -0.231371  -0.583531  0  2.288783  0
O  O131  1  0.72558362  0.94136370  0.06154039  1  -1.234528  0  -0.231287  -0.583963  0  2.288447  0
O  O132  1  0.56460707  0.91374120  0.95093553  1  -1.26044  0  -0.230205  -0.593555  0  2.34077  0
O  O133  1  0.06441186  0.08616550  0.04920301  1  -1.259413  0  -0.230009  -0.593378  0  2.339257  0
O  O134  1  0.56789255  0.06086505  0.94294707  1  -1.232847  0  -0.231575  -0.583924  0  2.284166  0
O  O135  1  0.06806894  0.93891121  0.05687396  1  -1.232836  0  -0.231641  -0.583661  0  2.284559  0
O  O136  1  0.72582403  0.08521536  0.05786135  1  -1.255279  0  -0.232698  -0.591997  0  2.305907  0
O  O137  1  0.22615112  0.91492815  0.94200391  1  -1.253584  0  -0.232511  -0.592128  0  2.306215  0
O  O138  1  0.39159248  0.01065750  0.03688841  1  -1.433183  0  -0.447721  -0.990222  0  2.193189  0
O  O139  1  0.89160963  0.98937243  0.96310556  1  -1.433742  0  -0.447489  -0.989884  0  2.192888  0
O  O140  1  0.27055094  0.72080562  0.31069477  1  -1.049683  0  -0.2278  -0.254752  0  2.453895  0
O  O141  1  0.77067787  0.27919639  0.68933522  1  -1.05094  0  -0.228085  -0.256757  0  2.452181  0
O  O142  1  0.97671560  0.57470373  0.17511007  1  -0.48484  0  -0.138122  -0.344714  0  1.898184  0
O  O143  1  0.73465020  0.54269284  0.23218763  1  -0.429852  0  -0.119357  -0.317435  0  1.887746  0
O  O144  1  0.47667057  0.42528516  0.82487752  1  -0.484796  0  -0.138306  -0.344867  0  1.897634  0
O  O145  1  0.23452525  0.45731207  0.76782472  1  -0.429353  0  -0.119243  -0.31734  0  1.887335  0
