# generated using pymatgen
data_AlH6C13NO7F
_symmetry_space_group_name_H-M   'P 1'
_cell_length_a   6.83753544
_cell_length_b   11.11736250
_cell_length_c   15.39987245
_cell_angle_alpha   83.12424927
_cell_angle_beta   75.73493256
_cell_angle_gamma   71.91267834
_symmetry_Int_Tables_number   1
_chemical_formula_structural   AlH6C13NO7F
_chemical_formula_sum   'Al2 H12 C26 N2 O14 F2'
_cell_volume   1077.28122442
_cell_formula_units_Z   2
loop_
 _symmetry_equiv_pos_site_id
 _symmetry_equiv_pos_as_xyz
  1  'x, y, z'
loop_
 _atom_site_type_symbol
 _atom_site_label
 _atom_site_symmetry_multiplicity
 _atom_site_fract_x
 _atom_site_fract_y
 _atom_site_fract_z
 _atom_site_occupancy
 _atom_site_pbe_bader_charge
 _atom_site_pbe_bader_spin_density
 _atom_site_pbe_cm5_charge
 _atom_site_pbe_ddec_charge
 _atom_site_pbe_ddec_spin_density
 _atom_site_pbe_ddec_sum_bond_order
 _atom_site_pbe_magmom
Al  Al0  1  0.49777395  0.49061164  0.50566400  1  2.505329  0  0.406139  1.637324  0  2.545179  0
Al  Al1  1  0.00070483  0.48678961  0.50409235  1  2.509857  0  0.401002  1.65152  0  2.548208  0
H  H2  1  0.24248220  0.39647598  0.60656774  1  0.622158  0  0.334871  0.414991  0  0.890536  0
H  H3  1  0.76995414  0.56378077  0.39814267  1  0.629368  0  0.326725  0.402206  0  0.921993  0
H  H4  1  0.85206113  0.47956068  0.93646385  1  0.102171  0  0.112758  0.118492  0  1.005362  0
H  H5  1  0.17739565  0.46207204  0.06920059  1  0.076702  0  0.112805  0.118333  0  1.004898  0
H  H6  1  0.66078097  0.54758572  0.23047491  1  0.175657  0  0.109909  0.106652  0  1.088978  0
H  H7  1  0.73409433  0.57149366  0.06447504  1  0.065874  0  0.103274  0.100409  0  1.004911  0
H  H8  1  0.26972068  0.57188272  0.77739419  1  0.158319  0  0.112449  0.11228  0  1.087458  0
H  H9  1  0.18571209  0.57491952  0.94377831  1  0.064506  0  0.103011  0.100441  0  1.00847  0
H  H10  1  0.23087231  0.23544418  0.38509649  1  0.113447  0  0.114388  0.145123  0  1.033927  0
H  H11  1  0.47573394  0.76424730  0.38075149  1  0.098478  0  0.116851  0.148564  0  1.007342  0
H  H12  1  0.76032369  0.86466523  0.55531129  1  0.094983  0  0.114287  0.122097  0  0.980315  0
H  H13  1  0.63829914  0.10188056  0.55839741  1  0.114667  0  0.112688  0.120127  0  0.983272  0
C  C14  1  0.85967154  0.26241624  0.50072583  1  1.552657  0  0.272542  0.657713  0  4.069105  0
C  C15  1  0.65096781  0.51452437  0.66376064  1  1.615808  0  0.277321  0.654906  0  4.079082  0
C  C16  1  0.14176853  0.71589296  0.49286574  1  1.567683  0  0.269607  0.650362  0  4.079481  0
C  C17  1  0.34158375  0.47999815  0.34379963  1  1.628991  0  0.27309  0.645381  0  4.08651  0
C  C18  1  0.60133184  0.52526662  0.76332501  1  0.023377  0  -0.001096  -0.079892  0  3.925547  0
C  C19  1  0.38133674  0.49438507  0.24368858  1  0.069017  0  0.000435  -0.078261  0  3.924437  0
C  C20  1  0.75907645  0.50657428  0.81082739  1  0.184587  0  0.090727  0.070301  0  3.969206  0
C  C21  1  0.72024585  0.50056810  0.90369710  1  0.064278  0  -0.080394  -0.185762  0  3.945565  0
C  C22  1  0.24445942  0.47719704  0.19532376  1  0.213351  0  0.093165  0.074881  0  3.957224  0
C  C23  1  0.28647356  0.48207920  0.10244730  1  -0.029436  0  -0.077723  -0.183112  0  3.938911  0
C  C24  1  0.55858917  0.52775359  0.19361528  1  -0.023384  0  -0.071546  -0.056262  0  3.951663  0
C  C25  1  0.59955432  0.53919834  0.10056890  1  -0.055724  0  -0.080768  -0.11969  0  3.939332  0
C  C26  1  0.39455080  0.55000471  0.81399809  1  -0.000371  0  -0.074212  -0.061625  0  3.955486  0
C  C27  1  0.34991422  0.54988154  0.90698369  1  -0.038247  0  -0.083138  -0.124625  0  3.95038  0
C  C28  1  0.51231978  0.52078450  0.95398517  1  -0.003751  0  0.006528  0.093999  0  3.987075  0
C  C29  1  0.46744532  0.51333013  0.05286924  1  -0.033161  0  0.007837  0.097003  0  3.981424  0
C  C30  1  0.93590083  0.12359849  0.48600115  1  -0.008369  0  -0.004953  -0.075679  0  3.915262  0
C  C31  1  0.14417981  0.06294691  0.43674897  1  -0.036041  0  0.004135  0.078471  0  3.946147  0
C  C32  1  0.79869324  0.05279545  0.52444081  1  -0.037674  0  -0.079526  -0.092687  0  3.993445  0
C  C33  1  0.27951943  0.13269901  0.38563548  1  0.090205  0  -0.098733  -0.238463  0  3.975183  0
C  C34  1  0.47277253  0.07117765  0.33536577  1  0.42532  0  0.090957  0.185949  0  4.113331  0
C  C35  1  0.07329514  0.85707845  0.48286851  1  -0.001638  0  -0.005615  -0.075089  0  3.922643  0
C  C36  1  0.86700588  0.92011774  0.52281555  1  0.010701  0  -0.079071  -0.09111  0  3.991978  0
C  C37  1  0.21453825  0.92677395  0.43523871  1  0.033081  0  0.003755  0.076965  0  3.953453  0
C  C38  1  0.41733379  0.86679125  0.38287379  1  0.087349  0  -0.098138  -0.239107  0  3.973628  0
C  C39  1  0.54216470  0.93777787  0.33400538  1  0.493386  0  0.090285  0.184047  0  4.118206  0
N  N40  1  0.97552151  0.50105608  0.76252491  1  0.385984  0  0.062991  0.519266  0  4.224521  0
N  N41  1  0.03545034  0.46570186  0.24189543  1  0.439583  0  0.063939  0.516656  0  4.213269  0
O  O42  1  0.66331498  0.31686724  0.50588250  1  -1.263356  0  -0.237089  -0.597976  0  2.332846  0
O  O43  1  0.83965687  0.50874217  0.62360356  1  -1.255139  0  -0.226642  -0.593063  0  2.414116  0
O  O44  1  0.00618109  0.65968248  0.49114982  1  -1.257257  0  -0.234914  -0.591734  0  2.330791  0
O  O45  1  0.48224161  0.48967904  0.38064040  1  -1.245033  0  -0.220276  -0.563526  0  2.346579  0
O  O46  1  0.32958443  0.66340858  0.50301576  1  -1.259202  0  -0.233708  -0.590964  0  2.36802  0
O  O47  1  0.16760766  0.45924625  0.38389581  1  -1.260709  0  -0.230107  -0.594815  0  2.408548  0
O  O48  1  0.99450250  0.31446287  0.51055071  1  -1.259743  0  -0.2373  -0.595651  0  2.348548  0
O  O49  1  0.50576363  0.50812121  0.62843585  1  -1.243554  0  -0.219483  -0.562108  0  2.334813  0
O  O50  1  0.25239863  0.43708736  0.54673273  1  -1.429892  0  -0.451836  -0.984256  0  2.146926  0
O  O51  1  0.74794664  0.53889267  0.46192830  1  -1.436079  0  -0.45554  -0.987654  0  2.152304  0
O  O52  1  0.00554916  0.60528662  0.73863186  1  -0.427403  0  -0.091562  -0.276367  0  1.945013  0
O  O53  1  0.11087290  0.39656273  0.75321092  1  -0.446233  0  -0.111649  -0.315748  0  1.898525  0
O  O54  1  0.90535226  0.56779186  0.26862873  1  -0.487375  0  -0.101656  -0.30922  0  2.008574  0
O  O55  1  0.99950665  0.36307807  0.24663064  1  -0.425826  0  -0.091419  -0.276817  0  1.896686  0
F  F56  1  0.60043915  0.13783783  0.28479584  1  -0.628671  0  -0.104691  -0.130923  0  1.328188  0
F  F57  1  0.73410005  0.88112170  0.28242150  1  -0.623605  0  -0.105687  -0.132277  0  1.335202  0
