# generated using pymatgen
data_Al6H56C89N5Cl3O28
_symmetry_space_group_name_H-M   'P 1'
_cell_length_a   13.13073210
_cell_length_b   12.94706087
_cell_length_c   27.66074807
_cell_angle_alpha   91.47008753
_cell_angle_beta   89.13165476
_cell_angle_gamma   120.32546447
_symmetry_Int_Tables_number   1
_chemical_formula_structural   Al6H56C89N5Cl3O28
_chemical_formula_sum   'Al6 H56 C89 N5 Cl3 O28'
_cell_volume   4057.66909762
_cell_formula_units_Z   1
loop_
 _symmetry_equiv_pos_site_id
 _symmetry_equiv_pos_as_xyz
  1  'x, y, z'
loop_
 _atom_site_type_symbol
 _atom_site_label
 _atom_site_symmetry_multiplicity
 _atom_site_fract_x
 _atom_site_fract_y
 _atom_site_fract_z
 _atom_site_occupancy
 _atom_site_pbe_bader_charge
 _atom_site_pbe_bader_spin_density
 _atom_site_pbe_cm5_charge
 _atom_site_pbe_ddec_charge
 _atom_site_pbe_ddec_spin_density
 _atom_site_pbe_ddec_sum_bond_order
 _atom_site_pbe_magmom
Al  Al0  1  0.58627068  0.17236131  0.50482450  1  2.495823  0  0.394311  1.690206  0  2.553706  0
Al  Al1  1  0.57094869  0.91794022  0.50008502  1  2.482023  0  0.503796  1.662308  0  2.508834  0
Al  Al2  1  0.34406714  0.92216754  0.50010226  1  2.479989  0  0.506841  1.663773  0  2.503033  0
Al  Al3  1  0.05680062  0.14844030  0.01545925  1  2.490858  0  0.397622  1.686806  0  2.544228  0
Al  Al4  1  0.30719628  0.39451473  0.01547698  1  2.477948  0  0.492189  1.651334  0  2.53914  0
Al  Al5  1  0.09179439  0.41415841  0.01642929  1  2.48143  0  0.50519  1.661551  0  2.502391  0
H  H6  1  0.45425259  0.57534533  0.77414257  1  0.072564  0  0.101612  0.089117  0  1.009067  0
H  H7  1  0.26708635  0.47205767  0.70567861  1  0.090219  0  0.101822  0.090542  0  1.005605  0
H  H8  1  0.18870619  0.69269487  0.21423614  1  0.056842  0  0.098807  0.102139  0  1.021959  0
H  H9  1  0.16947213  0.63621727  0.12804118  1  0.114154  0  0.11191  0.116668  0  0.989243  0
H  H10  1  0.54215435  0.75214072  0.28355908  1  0.082684  0  0.099709  0.099157  0  1.018963  0
H  H11  1  0.51310369  0.68412854  0.21779309  1  0.044246  0  0.098199  0.097983  0  1.045064  0
H  H12  1  0.18266446  0.67858693  0.28544236  1  0.064289  0  0.099687  0.091283  0  1.047088  0
H  H13  1  0.19681843  0.71850174  0.37340174  1  0.096699  0  0.112277  0.113783  0  0.990561  0
H  H14  1  0.17961295  0.00850530  0.38550651  1  0.093814  0  0.104786  0.112808  0  0.998132  0
H  H15  1  0.37658766  0.39616301  0.15435387  1  0.13297  0  0.1072  0.123794  0  1.017426  0
H  H16  1  0.52962221  0.80315854  0.73646351  1  0.076924  0  0.101445  0.090035  0  0.99832  0
H  H17  1  0.50847560  0.27475423  0.72749677  1  0.07562  0  0.104672  0.105779  0  0.987168  0
H  H18  1  0.15431089  0.04940507  0.29999456  1  0.064561  0  0.091442  0.090693  0  1.034919  0
H  H19  1  0.21695872  0.98706527  0.21750012  1  0.079406  0  0.103702  0.105268  0  0.996317  0
H  H20  1  0.17374145  0.01423570  0.13244818  1  0.066491  0  0.111309  0.115899  0  0.986181  0
H  H21  1  0.55509705  0.22458273  0.36845451  1  0.073896  0  0.106901  0.116266  0  1.018516  0
H  H22  1  0.77735727  0.29273550  0.39225049  1  0.114854  0  0.121605  0.139865  0  0.985828  0
H  H23  1  0.03863403  0.39138080  0.24714319  1  0.081623  0  0.100962  0.100706  0  1.032282  0
H  H24  1  0.06781784  0.42128640  0.15936287  1  0.106013  0  0.101436  0.101706  0  1.03387  0
H  H25  1  0.74694864  0.03464101  0.22093170  1  0.054042  0  0.095804  0.09768  0  1.011707  0
H  H26  1  0.37917990  0.83320326  0.80410369  1  0.091302  0  0.102877  0.096204  0  1.022664  0
H  H27  1  0.78786854  0.05971280  0.13265278  1  0.084461  0  0.110001  0.113895  0  0.985091  0
H  H28  1  0.40152915  0.39350294  0.77384586  1  0.034454  0  0.098539  0.086371  0  1.025965  0
H  H29  1  0.79347807  0.97072265  0.37675499  1  0.122659  0  0.112732  0.131934  0  0.989582  0
H  H30  1  0.19642452  0.73287241  0.73464612  1  0.094106  0  0.101559  0.0931  0  1.028074  0
H  H31  1  0.11899811  0.50514474  0.77305780  1  0.092867  0  0.093531  0.085525  0  1.038099  0
H  H32  1  0.09467629  0.08892465  0.78135854  1  0.080009  0  0.101437  0.105445  0  1.002078  0
H  H33  1  0.20532821  0.26846760  0.71055103  1  0.057265  0  0.098469  0.085145  0  1.015633  0
H  H34  1  0.43351842  0.11641023  0.83809431  1  0.427322  0  0.297089  0.244251  0  0.962676  0
H  H35  1  0.53298907  0.02403094  0.80412183  1  0.029638  0  0.103064  0.109275  0  0.988249  0
H  H36  1  0.56202689  0.14076300  0.76336710  1  0.027855  0  0.086222  0.076533  0  1.039524  0
H  H37  1  0.44966522  0.99139451  0.74982961  1  0.045088  0  0.101168  0.10987  0  0.9958  0
H  H38  1  0.59212208  0.66806061  0.15241054  1  0.425089  0  0.317436  0.25395  0  0.93363  0
H  H39  1  0.74690221  0.25413444  0.78972665  1  0.088604  0  0.108221  0.110911  0  0.983736  0
H  H40  1  0.67451765  0.76744398  0.08313303  1  0.059821  0  0.109272  0.114157  0  0.97643  0
H  H41  1  0.53569422  0.74265649  0.06305086  1  0.0513  0  0.110576  0.119616  0  0.979853  0
H  H42  1  0.57080710  0.62759036  0.05549852  1  0.048939  0  0.106515  0.114  0  0.983915  0
H  H43  1  0.63005671  0.28504866  0.29654727  1  0.406576  0  0.295168  0.22617  0  1.002365  0
H  H44  1  0.66710416  0.27540356  0.21883628  1  0.026993  0  0.104179  0.117094  0  0.988269  0
H  H45  1  0.52802246  0.25148659  0.20018827  1  0.048828  0  0.092451  0.101605  0  1.02577  0
H  H46  1  0.53903624  0.13058654  0.22376798  1  0.044036  0  0.090344  0.093911  0  0.987083  0
H  H47  1  0.79636814  0.39358132  0.32002292  1  0.373858  0  0.295251  0.233774  0  0.958324  0
H  H48  1  0.98329859  0.56280703  0.30356505  1  0.038296  0  0.100671  0.110256  0  0.981145  0
H  H49  1  0.98255330  0.49551262  0.35961555  1  0.055482  0  0.093272  0.095364  0  0.989932  0
H  H50  1  0.65701964  0.02815194  0.74049331  1  0.103593  0  0.104708  0.096032  0  1.016795  0
H  H51  1  0.04625592  0.46937621  0.30726409  1  0.063151  0  0.098921  0.104136  0  1.023784  0
H  H52  1  0.19169724  0.89306232  0.76581095  1  0.413737  0  0.296833  0.238586  0  0.963705  0
H  H53  1  0.05643857  0.78195522  0.70220309  1  0.049993  0  0.10194  0.108123  0  0.989546  0
H  H54  1  0.10345163  0.91674396  0.67106908  1  0.086783  0  0.104619  0.117215  0  0.986513  0
H  H55  1  0.01591960  0.88698939  0.72475490  1  0.001668  0  0.082457  0.073374  0  1.010937  0
H  H56  1  0.81513319  0.98532908  0.79392816  1  0.056246  0  0.108608  0.101892  0  0.979071  0
H  H57  1  0.98520732  0.09447757  0.71877896  1  0.06056  0  0.104848  0.098048  0  1.006571  0
H  H58  1  0.07513350  0.31737952  0.76786469  1  0.088771  0  0.106517  0.111208  0  1.000191  0
H  H59  1  0.55199372  0.78457111  0.37169731  1  0.116587  0  0.111594  0.116135  0  0.99557  0
H  H60  1  0.66704939  0.36917447  0.53530064  1  0.581  0  0.292262  0.385619  0  0.919478  0
H  H61  1  0.98244293  0.95199646  0.03993409  1  0.572843  0  0.286601  0.372186  0  0.940726  0
C  C62  1  0.70753624  0.08741776  0.57098886  1  1.681652  0  0.274881  0.707953  0  4.165912  0
C  C63  1  0.34730494  0.70615687  0.65650118  1  -0.509573  0  -0.013737  -0.013344  0  4.047158  0
C  C64  1  0.24768901  0.22886020  0.73071829  1  -0.026981  0  -0.072328  -0.075709  0  3.662416  0
C  C65  1  0.38786481  0.78024998  0.56626735  1  1.638347  0  0.282569  0.724629  0  4.14481  0
C  C66  1  0.18562394  0.12781716  0.76852575  1  -0.079411  0  -0.081638  -0.155207  0  3.624905  0
C  C67  1  0.29047972  0.21067212  0.89785752  1  0.253052  0  -0.044809  -0.209247  0  3.969516  0
C  C68  1  0.33263658  0.12013256  0.61378708  1  -0.27047  0  -0.045685  -0.212138  0  3.969281  0
C  C69  1  0.35745879  0.29820082  0.76452477  1  0.005733  0  -0.071403  -0.06625  0  3.644439  0
C  C70  1  0.29557084  0.19643848  0.80304434  1  0.128687  0  0.004742  0.078725  0  3.835561  0
C  C71  1  0.41704948  0.23214890  0.74010250  1  -0.055515  0  -0.075419  -0.138752  0  3.611126  0
C  C72  1  0.30710063  0.16124492  0.70538768  1  0.137307  0  0.004825  0.074941  0  3.804863  0
C  C73  1  0.36028003  0.73012317  0.61364313  1  0.240079  0  -0.043218  -0.210438  0  3.959498  0
C  C74  1  0.35512192  0.12885755  0.77805952  1  0.458517  0  0.101462  0.148011  0  3.730513  0
C  C75  1  0.24527838  0.05846251  0.74428737  1  0.452341  0  0.097968  0.135985  0  3.73557  0
C  C76  1  0.29328073  0.20786070  0.85378617  1  -0.578236  0  -0.02317  -0.023907  0  4.086706  0
C  C77  1  0.36822804  0.09159903  0.56840451  1  1.655047  0  0.278588  0.718068  0  4.157721  0
C  C78  1  0.31739498  0.14125575  0.65560518  1  -0.034495  0  -0.021353  -0.015511  0  4.081269  0
C  C79  1  0.89355791  0.27699171  0.73344430  1  0.156187  0  0.026385  0.123116  0  3.707953  0
C  C80  1  0.79843318  0.21697237  0.77377292  1  -0.023013  0  -0.071656  -0.123373  0  3.629664  0
C  C81  1  0.91758081  0.23054427  0.89756498  1  0.287835  0  -0.039095  -0.194944  0  3.957453  0
C  C82  1  0.77113443  0.11083159  0.61562577  1  0.114268  0  -0.035629  -0.18253  0  3.959438  0
C  C83  1  0.98185376  0.25312521  0.76168963  1  -0.030793  0  -0.069195  -0.122778  0  3.611425  0
C  C84  1  0.21049469  0.57046058  0.76456215  1  -0.043678  0  -0.073493  -0.085269  0  3.638446  0
C  C85  1  0.88651405  0.19356598  0.80346670  1  0.094722  0  0.010845  0.133851  0  3.790393  0
C  C86  1  0.93179272  0.12893575  0.73519130  1  -0.007798  0  -0.070936  -0.080577  0  3.647176  0
C  C87  1  0.84343115  0.15193702  0.70564788  1  0.142441  0  0.006015  0.089434  0  3.804121  0
C  C88  1  0.83722774  0.06836891  0.77598091  1  -0.008896  0  -0.069088  -0.081578  0  3.618962  0
C  C89  1  0.71610492  0.09065204  0.43647782  1  1.582421  0  0.272888  0.631464  0  4.096381  0
C  C90  1  0.74964256  0.09266898  0.74772712  1  -0.057082  0  -0.066558  -0.068718  0  3.62686  0
C  C91  1  0.90550762  0.21532343  0.85386228  1  -0.522971  0  -0.02576  -0.037909  0  4.062866  0
C  C92  1  0.81048462  0.12907819  0.65653032  1  -0.426951  0  -0.031089  -0.039686  0  4.088825  0
C  C93  1  0.37451061  0.75161562  0.37844849  1  -0.036377  0  -0.014174  -0.053396  0  3.980788  0
C  C94  1  0.47077189  0.75957663  0.35242016  1  -0.048605  0  -0.074291  -0.074035  0  3.961678  0
C  C95  1  0.31386603  0.62632151  0.80312563  1  0.13709  0  0.006515  0.116994  0  3.786303  0
C  C96  1  0.46405883  0.74074783  0.30261866  1  -0.017304  0  -0.087781  -0.127233  0  3.964701  0
C  C97  1  0.36038522  0.71053473  0.27690520  1  -0.022189  0  0.003825  0.083163  0  3.957437  0
C  C98  1  0.26445046  0.70202109  0.30376842  1  -0.041291  0  -0.088104  -0.133661  0  3.974573  0
C  C99  1  0.27110703  0.72298052  0.35345844  1  -0.019804  0  -0.073807  -0.071421  0  3.963448  0
C  C100  1  0.25620513  0.67944821  0.19681413  1  -0.051831  0  -0.10919  -0.174437  0  4.012201  0
C  C101  1  0.38835351  0.78662379  0.43043837  1  1.52874  0  0.278362  0.647424  0  4.080658  0
C  C102  1  0.24655415  0.65067759  0.14807519  1  -0.068135  0  -0.082214  -0.06409  0  4.023719  0
C  C103  1  0.43468130  0.65587235  0.14791128  1  0.445137  0  0.117914  0.241885  0  4.038392  0
C  C104  1  0.43756948  0.67639065  0.19855664  1  0.001841  0  -0.102785  -0.255634  0  3.965883  0
C  C105  1  0.35148840  0.68829404  0.22381849  1  -0.026971  0  -0.003036  0.099013  0  4.010276  0
C  C106  1  0.25267916  0.69694599  0.74415337  1  -0.039382  0  -0.070139  -0.076374  0  3.623098  0
C  C107  1  0.33067015  0.63253864  0.12251977  1  0.013456  0  -0.034545  -0.181434  0  3.948531  0
C  C108  1  0.37003542  0.11746838  0.38192419  1  -0.008133  0  -0.018159  -0.024387  0  4.021951  0
C  C109  1  0.25565080  0.06361344  0.36279683  1  -0.109007  0  -0.101085  -0.124732  0  4.018344  0
C  C110  1  0.24250334  0.08492893  0.31495552  1  0.025848  0  -0.095067  -0.122203  0  4.028952  0
C  C111  1  0.33979926  0.15460281  0.28481227  1  -0.05763  0  -0.019543  -0.025197  0  3.966649  0
C  C112  1  0.45563671  0.20191030  0.30339031  1  0.42979  0  0.093905  0.184522  0  4.060207  0
C  C113  1  0.39379734  0.09624004  0.43197963  1  1.562332  0  0.271382  0.639184  0  4.082862  0
C  C114  1  0.46735455  0.18623438  0.35263546  1  0.019171  0  -0.092927  -0.197836  0  3.948398  0
C  C115  1  0.35799683  0.29024252  0.21651513  1  -0.014374  0  0.017259  0.105728  0  4.010366  0
C  C116  1  0.34117780  0.30643665  0.16832425  1  0.020694  0  -0.08752  -0.162806  0  3.959739  0
C  C117  1  0.33497922  0.68002078  0.70634320  1  0.136281  0  0.010017  0.116984  0  3.784464  0
C  C118  1  0.22664383  0.09111256  0.15616501  1  -0.06354  0  -0.081467  -0.09272  0  3.992136  0
C  C119  1  0.24948759  0.07654246  0.20360576  1  -0.015594  0  -0.086769  -0.124183  0  3.993505  0
C  C120  1  0.31682267  0.17500776  0.23482665  1  0.027675  0  -0.002954  0.034127  0  3.976415  0
C  C121  1  0.27554074  0.20661026  0.13801225  1  0.019079  0  -0.013997  -0.027573  0  3.992985  0
C  C122  1  0.77568566  0.12639394  0.38864476  1  -0.012428  0  -0.012606  -0.00979  0  4.014465  0
C  C123  1  0.79711155  0.23452136  0.36970832  1  -0.063217  0  -0.084143  -0.199728  0  3.958697  0
C  C124  1  0.84133037  0.26754894  0.32298245  1  0.354918  0  0.087432  0.183498  0  4.003413  0
C  C125  1  0.29242459  0.55207323  0.72811747  1  -0.048063  0  -0.066865  -0.073013  0  3.619848  0
C  C126  1  0.86396072  0.19011070  0.29317257  1  0.03384  0  0.000341  -0.051366  0  3.890665  0
C  C127  1  0.84994111  0.08589162  0.31499708  1  0.014186  0  0.016066  0.111195  0  4.015325  0
C  C128  1  0.35572627  0.75407823  0.78150328  1  -0.032234  0  -0.067645  -0.078  0  3.615806  0
C  C129  1  0.80545381  0.05289390  0.36158208  1  0.01728  0  -0.089204  -0.169919  0  3.979087  0
C  C130  1  0.97987592  0.31950274  0.22259722  1  0.001307  0  -0.086181  -0.117951  0  3.973334  0
C  C131  1  0.99773502  0.33631744  0.17300156  1  -0.097809  0  -0.083243  -0.090755  0  3.96993  0
C  C132  1  0.84000223  0.13299935  0.15808685  1  -0.030577  0  -0.081355  -0.088134  0  3.982665  0
C  C133  1  0.81896553  0.11873050  0.20752872  1  -0.063485  0  -0.092723  -0.135483  0  4.003662  0
C  C134  1  0.88988261  0.21094775  0.24079476  1  -0.010265  0  -0.007594  0.08463  0  4.00534  0
C  C135  1  0.92916329  0.24259502  0.14045534  1  0.023781  0  -0.011795  -0.033145  0  3.976158  0
C  C136  1  0.26669013  0.22322070  0.94782496  1  1.684992  0  0.276661  0.708482  0  4.172012  0
C  C137  1  0.39621882  0.60974881  0.76521137  1  -0.035417  0  -0.070346  -0.080217  0  3.63542  0
C  C138  1  0.26623820  0.52917562  0.94375116  1  1.634861  0  0.276501  0.718127  0  4.158293  0
C  C139  1  0.43822393  0.73662871  0.74503811  1  -0.048209  0  -0.067934  -0.074724  0  3.62341  0
C  C140  1  0.95168591  0.24225391  0.94761350  1  1.653947  0  0.280892  0.708412  0  4.160573  0
C  C141  1  0.25310776  0.22590275  0.08746785  1  1.573139  0  0.271659  0.647775  0  4.087057  0
C  C142  1  0.29347611  0.56694261  0.07601949  1  1.499013  0  0.263091  0.634661  0  4.110799  0
C  C143  1  0.96077529  0.25706783  0.08818643  1  1.561692  0  0.273191  0.645873  0  4.086238  0
C  C144  1  0.29141296  0.57534140  0.89568304  1  0.194374  0  -0.046728  -0.212928  0  3.971268  0
C  C145  1  0.49195251  0.05740272  0.77943989  1  0.270329  0  -0.146803  -0.223813  0  4.027571  0
C  C146  1  0.58027834  0.70034487  0.07975241  1  0.326617  0  -0.127401  -0.203637  0  3.956399  0
C  C147  1  0.57244555  0.22764997  0.22720052  1  0.293071  0  -0.143236  -0.212186  0  3.966725  0
C  C148  1  0.97370345  0.48191025  0.31993736  1  0.205851  0  -0.143721  -0.220694  0  3.973144  0
C  C149  1  0.08727216  0.87771181  0.70711305  1  0.245062  0  -0.142208  -0.210406  0  3.995174  0
C  C150  1  0.30237368  0.59965597  0.85288371  1  -0.48074  0  -0.017808  -0.018004  0  4.055899  0
N  N151  1  0.40334362  0.07320357  0.80553770  1  -1.144058  0  -0.474717  -0.355964  0  3.495666  0
N  N152  1  0.53158882  0.65825218  0.12762457  1  -1.203604  0  -0.426713  -0.261733  0  3.576514  0
N  N153  1  0.55829293  0.26363321  0.27617792  1  -1.154827  0  -0.458463  -0.311219  0  3.571207  0
N  N154  1  0.85947418  0.37850968  0.30511532  1  -1.038674  0  -0.472949  -0.3555  0  3.419443  0
N  N155  1  0.19761126  0.93554484  0.73439782  1  -1.148251  0  -0.471667  -0.346049  0  3.523863  0
Cl  Cl156  1  0.92787783  0.40969475  0.70531482  1  -0.22894  0  -0.026816  -0.111499  0  1.389154  0
Cl  Cl157  1  0.42917388  0.41593633  0.25404539  1  -0.215782  0  -0.011929  -0.088185  0  1.520161  0
Cl  Cl158  1  0.88976775  0.99250366  0.28406219  1  -0.221964  0  -0.015776  -0.098727  0  1.480126  0
O  O159  1  0.46881018  0.16673712  0.55220464  1  -1.228069  0  -0.211733  -0.570911  0  2.287466  0
O  O160  1  0.17135575  0.51523889  0.96350732  1  -1.241461  0  -0.231173  -0.590942  0  2.253571  0
O  O161  1  0.96766225  0.33552295  0.97204026  1  -1.252103  0  -0.244859  -0.608045  0  2.220489  0
O  O162  1  0.67098306  0.15779326  0.56116140  1  -1.204397  0  -0.209207  -0.555002  0  2.285455  0
O  O163  1  0.95910472  0.17006105  0.06579103  1  -1.245213  0  -0.218972  -0.575121  0  2.331672  0
O  O164  1  0.15709114  0.14869789  0.06785014  1  -1.255814  0  -0.224546  -0.589962  0  2.337795  0
O  O165  1  0.33272849  0.32295787  0.06792265  1  -1.277994  0  -0.246323  -0.607182  0  2.301142  0
O  O166  1  0.35616122  0.52508489  0.05744716  1  -1.27561  0  -0.235655  -0.608523  0  2.396284  0
O  O167  1  0.19450292  0.54414049  0.05773513  1  -1.271784  0  -0.243318  -0.61032  0  2.309416  0
O  O168  1  0.99384544  0.36058393  0.07011558  1  -1.279686  0  -0.250989  -0.618044  0  2.268034  0
O  O169  1  0.15207616  0.31950241  0.01552853  1  -1.610348  0  -0.39127  -1.263797  0  2.290436  0
O  O170  1  0.48030158  0.80131149  0.45216712  1  -1.264983  0  -0.235738  -0.602566  0  2.30901  0
O  O171  1  0.69036765  0.99461129  0.54584995  1  -1.258928  0  -0.243917  -0.608945  0  2.239358  0
O  O172  1  0.48817542  0.80443909  0.54847793  1  -1.242033  0  -0.229882  -0.591558  0  2.23696  0
O  O173  1  0.31381218  0.80233406  0.54640881  1  -1.234134  0  -0.226981  -0.587464  0  2.244394  0
O  O174  1  0.29585534  0.98853620  0.54907435  1  -1.254253  0  -0.241163  -0.601845  0  2.230503  0
O  O175  1  0.49487400  0.16701591  0.44928960  1  -1.256414  0  -0.2173  -0.564829  0  2.359784  0
O  O176  1  0.69753901  0.16539566  0.45906746  1  -1.243765  0  -0.208167  -0.54636  0  2.358811  0
O  O177  1  0.68297269  0.98381449  0.45059077  1  -1.270767  0  -0.246042  -0.604619  0  2.273574  0
O  O178  1  0.31107486  0.80736936  0.45008815  1  -1.265  0  -0.235294  -0.597962  0  2.285973  0
O  O179  1  0.31155619  0.00404494  0.45386783  1  -1.286585  0  -0.251181  -0.619716  0  2.276456  0
O  O180  1  0.49931255  0.00182615  0.50209311  1  -1.608911  0  -0.39181  -1.272129  0  2.299096  0
O  O181  1  0.96749442  0.16025476  0.96269079  1  -1.205262  0  -0.197599  -0.521404  0  2.279729  0
O  O182  1  0.16567403  0.15002774  0.96370372  1  -1.21015  0  -0.202457  -0.54071  0  2.283425  0
O  O183  1  0.34975862  0.31313381  0.97170683  1  -1.267968  0  -0.249587  -0.612286  0  2.218536  0
O  O184  1  0.33693460  0.50069849  0.96240720  1  -1.241038  0  -0.231399  -0.59359  0  2.256101  0
O  O185  1  0.67072329  0.32931813  0.50586928  1  -1.371074  0  -0.580843  -1.00282  0  1.790038  0
O  O186  1  0.96831711  0.99177349  0.01399061  1  -1.365475  0  -0.580586  -0.995272  0  1.801471  0
