# generated using pymatgen
data_AlH16C20O7
_symmetry_space_group_name_H-M   'P 1'
_cell_length_a   6.62371508
_cell_length_b   20.42349733
_cell_length_c   24.10869533
_cell_angle_alpha   90.14332063
_cell_angle_beta   87.13011633
_cell_angle_gamma   92.48294420
_symmetry_Int_Tables_number   1
_chemical_formula_structural   AlH16C20O7
_chemical_formula_sum   'Al4 H64 C80 O28'
_cell_volume   3254.26179998
_cell_formula_units_Z   4
loop_
 _symmetry_equiv_pos_site_id
 _symmetry_equiv_pos_as_xyz
  1  'x, y, z'
loop_
 _atom_site_type_symbol
 _atom_site_label
 _atom_site_symmetry_multiplicity
 _atom_site_fract_x
 _atom_site_fract_y
 _atom_site_fract_z
 _atom_site_occupancy
 _atom_site_pbe_bader_charge
 _atom_site_pbe_bader_spin_density
 _atom_site_pbe_cm5_charge
 _atom_site_pbe_ddec_charge
 _atom_site_pbe_ddec_spin_density
 _atom_site_pbe_ddec_sum_bond_order
 _atom_site_pbe_magmom
Al  Al0  1  0.86878629  0.50433918  0.49801508  1  2.498847  0  0.401067  1.635303  0  2.581837  0
Al  Al1  1  0.36758573  0.50289713  0.50142376  1  2.501411  0  0.399655  1.639007  0  2.585655  0
Al  Al2  1  0.28666556  0.99935059  0.00080720  1  2.498544  0  0.397816  1.63967  0  2.586883  0
Al  Al3  1  0.78650046  0.99888626  0.00150678  1  2.500787  0  0.400694  1.641245  0  2.576021  0
H  H4  1  0.38956745  0.70407149  0.46766714  1  0.0905  0  0.110985  0.115396  0  0.98318  0
H  H5  1  0.42493457  0.86708764  0.32542585  1  0.072347  0  0.09923  0.099348  0  0.998859  0
H  H6  1  0.92534040  0.67692784  0.07247990  1  0.066822  0  0.098782  0.101707  0  0.998364  0
H  H7  1  0.90949267  0.78272418  0.02162138  1  0.102617  0  0.110277  0.114413  0  0.979976  0
H  H8  1  0.27871238  0.87733263  0.23421748  1  0.107297  0  0.10459  0.108144  0  1.047859  0
H  H9  1  0.32979473  0.16464681  0.23345811  1  0.101356  0  0.114176  0.119901  0  0.977124  0
H  H10  1  0.36368945  0.24138789  0.31331253  1  0.095066  0  0.112063  0.116805  0  0.989461  0
H  H11  1  0.80426654  0.26378760  0.18471940  1  0.10069  0  0.108651  0.113577  0  1.012419  0
H  H12  1  0.31602982  0.65789613  0.74040743  1  0.087981  0  0.112127  0.117987  0  0.983025  0
H  H13  1  0.28802222  0.73247073  0.82238219  1  0.097121  0  0.111879  0.116285  0  0.982249  0
H  H14  1  0.52015226  0.11864774  0.65445692  1  0.070273  0  0.10095  0.102471  0  1.01809  0
H  H15  1  0.52524004  0.11377701  0.83487995  1  0.053077  0  0.104662  0.106531  0  1.011346  0
H  H16  1  0.49760258  0.11644619  0.75559829  1  0.058207  0  0.099444  0.098521  0  1.016647  0
H  H17  1  0.02901615  0.61678691  0.15014405  1  0.056334  0  0.098906  0.107146  0  1.04391  0
H  H18  1  0.46122433  0.80590099  0.41113291  1  0.049038  0  0.101057  0.103722  0  0.997815  0
H  H19  1  0.83866970  0.34060774  0.26428810  1  0.096183  0  0.112337  0.116078  0  0.980613  0
H  H20  1  0.85115164  0.83216795  0.76862564  1  0.05795  0  0.113869  0.119463  0  0.977097  0
H  H21  1  0.87919364  0.75765677  0.68670542  1  0.088979  0  0.113096  0.11811  0  0.979132  0
H  H22  1  0.56636404  0.46721196  0.80861297  1  0.032863  0  0.098781  0.056919  0  0.985852  0
H  H23  1  0.82995610  0.45244448  0.80193942  1  0.035037  0  0.100533  0.059725  0  0.966125  0
H  H24  1  0.87061945  0.49315557  0.89994985  1  0.010743  0  0.093363  0.126226  0  0.994382  0
H  H25  1  0.76925419  0.55427639  0.85801693  1  0.026505  0  0.093894  0.125505  0  0.99747  0
H  H26  1  0.60758714  0.50827597  0.90622042  1  0.04526  0  0.092796  0.125391  0  0.995149  0
H  H27  1  0.74204911  0.69375757  0.33762207  1  0.044431  0  0.090534  0.0464  0  0.993821  0
H  H28  1  0.71701697  0.64330853  0.39866924  1  0.040605  0  0.098909  0.06756  0  0.989732  0
H  H29  1  0.45220539  0.61117596  0.33096193  1  0.083269  0  0.08906  0.123019  0  1.05006  0
H  H30  1  0.64536279  0.59649333  0.27921399  1  0.014684  0  0.084993  0.113744  0  1.006012  0
H  H31  1  0.61895281  0.54657740  0.34022012  1  0.025824  0  0.088618  0.118403  0  1.002047  0
H  H32  1  0.28679804  0.38506920  0.72227782  1  0.041908  0  0.092803  0.050746  0  0.996131  0
H  H33  1  0.23368444  0.40094545  0.65175184  1  0.060089  0  0.099997  0.063026  0  0.972143  0
H  H34  1  0.15826586  0.49725856  0.71451879  1  0.027487  0  0.091055  0.121729  0  0.999778  0
H  H35  1  0.34749708  0.51830001  0.66178262  1  0.080979  0  0.092258  0.135787  0  1.024688  0
H  H36  1  0.41781954  0.50367426  0.73097785  1  -0.007179  0  0.083208  0.107136  0  1.03113  0
H  H37  1  0.90161015  0.24148976  0.50342351  1  0.04011  0  0.096797  0.049579  0  1.01138  0
H  H38  1  0.89750742  0.31870222  0.46960404  1  0.05734  0  0.095974  0.061611  0  1.000776  0
H  H39  1  0.69899410  0.26669273  0.39361612  1  0.024392  0  0.08845  0.121687  0  1.003353  0
H  H40  1  0.93200463  0.22794009  0.39988719  1  0.059336  0  0.086894  0.118928  0  1.01739  0
H  H41  1  0.70180391  0.18920653  0.42777660  1  0.018693  0  0.087287  0.119023  0  1.008939  0
H  H42  1  0.63983689  0.32265094  0.93728578  1  0.094825  0  0.107712  0.122116  0  1.016477  0
H  H43  1  0.32682126  0.21701655  0.02558006  1  0.033778  0  0.099602  0.061502  0  0.971731  0
H  H44  1  0.46991583  0.29324645  0.02787473  1  0.004614  0  0.091172  0.044797  0  0.978838  0
H  H45  1  0.68021733  0.24537112  0.10150854  1  0.030203  0  0.084442  0.111777  0  1.02387  0
H  H46  1  0.41840053  0.24645448  0.12369043  1  0.033532  0  0.083283  0.112179  0  1.028843  0
H  H47  1  0.52539240  0.17180487  0.10060353  1  0.095485  0  0.096777  0.140139  0  0.992262  0
H  H48  1  0.63863637  0.38694072  0.74752686  1  0.14868  0  0.102261  0.110928  0  1.093853  0
H  H49  1  0.81203290  0.12007792  0.60663185  1  0.030489  0  0.096114  0.054145  0  0.994487  0
H  H50  1  0.90363249  0.15393524  0.54182640  1  0.04534  0  0.094895  0.05045  0  0.994543  0
H  H51  1  0.69236435  0.06925886  0.49162401  1  0.039785  0  0.090937  0.123153  0  1.000017  0
H  H52  1  0.86640797  0.03199865  0.53447880  1  0.037736  0  0.094229  0.125951  0  0.995007  0
H  H53  1  0.60566404  0.03410017  0.55647797  1  0.033304  0  0.090405  0.122084  0  0.997815  0
H  H54  1  0.88256111  0.88607061  0.23673461  1  0.049565  0  0.093651  0.049207  0  0.996343  0
H  H55  1  0.78932295  0.92349785  0.17675159  1  0.046788  0  0.099593  0.061403  0  0.967989  0
H  H56  1  0.00734084  0.02525078  0.19414663  1  0.03718  0  0.087857  0.124054  0  1.029476  0
H  H57  1  0.83825552  0.00658642  0.25210856  1  0.037387  0  0.092329  0.123614  0  0.994291  0
H  H58  1  0.09777718  0.98787656  0.25442933  1  -0.006621  0  0.089308  0.1202  0  1.002213  0
H  H59  1  0.22851074  0.54369592  0.18338799  1  0.037285  0  0.096196  0.051261  0  0.968974  0
H  H60  1  0.97445413  0.53502565  0.21199449  1  0.060821  0  0.098087  0.054474  0  0.970619  0
H  H61  1  0.09734155  0.48490685  0.29809241  1  0.053498  0  0.092847  0.133405  0  1.002307  0
H  H62  1  0.17860929  0.43960197  0.23838518  1  0.023285  0  0.086346  0.115151  0  1.017372  0
H  H63  1  0.35199915  0.49432236  0.27129817  1  0.039836  0  0.092893  0.129324  0  1.004962  0
H  H64  1  0.62159168  0.48595079  0.42964456  1  0.662704  0  0.352268  0.429339  0  0.860407  0
H  H65  1  0.09119099  0.45920663  0.56069029  1  0.606723  0  0.35229  0.43067  0  0.860207  0
H  H66  1  0.51541828  0.96765403  0.06862297  1  0.629303  0  0.357636  0.437894  0  0.843014  0
H  H67  1  0.05275240  0.03258666  0.93462570  1  0.626132  0  0.358065  0.438346  0  0.842189  0
C  C68  1  0.62375019  0.57941131  0.57588133  1  1.68746  0  0.277652  0.709682  0  4.172374  0
C  C69  1  0.59219035  0.40349910  0.55536020  1  1.59987  0  0.277299  0.698139  0  4.075486  0
C  C70  1  0.12159208  0.42732503  0.42104078  1  1.691042  0  0.27279  0.705938  0  4.182185  0
C  C71  1  0.14866266  0.60189960  0.44513411  1  1.59641  0  0.275976  0.666403  0  4.074848  0
C  C72  1  0.00833893  0.84086992  0.09099736  1  -0.041396  0  -0.025794  -0.150348  0  4.002346  0
C  C73  1  0.18500067  0.66110809  0.40949265  1  -0.012104  0  -0.020907  -0.149796  0  3.968761  0
C  C74  1  0.96500999  0.72331716  0.09258570  1  -0.014769  0  -0.102116  -0.154506  0  4.020077  0
C  C75  1  0.95601611  0.78154266  0.06433293  1  -0.015678  0  -0.087568  -0.084848  0  4.038529  0
C  C76  1  0.06438446  0.84129580  0.14593074  1  0.501641  0  0.088934  0.193128  0  4.000504  0
C  C77  1  0.08222890  0.78189300  0.17583460  1  -0.011426  0  -0.014826  -0.08689  0  3.934993  0
C  C78  1  0.02822780  0.72214839  0.14781628  1  -0.074266  0  -0.008688  0.122132  0  4.056192  0
C  C79  1  0.15108695  0.77786480  0.23192122  1  -0.009366  0  -0.002336  0.059849  0  3.954363  0
C  C80  1  0.13599076  0.71712022  0.26095190  1  0.00718  0  -0.003363  -0.039325  0  3.89531  0
C  C81  1  0.10760218  0.65806831  0.22857425  1  0.460267  0  0.089009  0.222373  0  4.076284  0
C  C82  1  0.04968094  0.66120678  0.17461279  1  0.051306  0  -0.124508  -0.307464  0  4.043333  0
C  C83  1  0.25387490  0.83217630  0.25772552  1  -0.071745  0  -0.096911  -0.136467  0  4.018935  0
C  C84  1  0.33341382  0.82664861  0.30868458  1  -0.037913  0  -0.096939  -0.139576  0  4.034216  0
C  C85  1  0.29416914  0.76948991  0.34173562  1  -0.060473  0  -0.008091  0.092927  0  4.039762  0
C  C86  1  0.17710876  0.71600078  0.31944314  1  0.009178  0  -0.005547  -0.053071  0  3.912532  0
C  C87  1  0.36712464  0.76529566  0.39574590  1  -0.038358  0  -0.09916  -0.160078  0  4.034532  0
C  C88  1  0.32395653  0.71018363  0.42754146  1  -0.004039  0  -0.084661  -0.08167  0  4.035976  0
C  C89  1  0.10275246  0.66568614  0.35732557  1  0.55503  0  0.099473  0.201394  0  4.012916  0
C  C90  1  0.24211119  0.24612711  0.28491204  1  -0.056167  0  -0.077085  -0.122005  0  3.960071  0
C  C91  1  0.10398019  0.29627216  0.29384039  1  0.101246  0  0.00335  0.118019  0  4.123963  0
C  C92  1  0.94558852  0.30198573  0.25724267  1  -0.054744  0  -0.075979  -0.117447  0  3.962483  0
C  C93  1  0.92633673  0.25914517  0.21293761  1  -0.045326  0  -0.078603  -0.123655  0  3.956716  0
C  C94  1  0.06500089  0.20914760  0.20375310  1  0.100713  0  0.005724  0.128827  0  4.109484  0
C  C95  1  0.22292685  0.20327691  0.24053389  1  -0.036829  0  -0.074798  -0.118215  0  3.950504  0
C  C96  1  0.12047165  0.34062508  0.33864487  1  -0.555436  0  -0.015479  -0.029909  0  4.080324  0
C  C97  1  0.04844887  0.16555862  0.15831288  1  -0.391686  0  -0.019608  -0.044154  0  4.07737  0
C  C98  1  0.04059906  0.12757980  0.11936202  1  0.105956  0  -0.02087  -0.165711  0  3.922978  0
C  C99  1  0.12573553  0.37998593  0.37664665  1  0.272152  0  -0.028879  -0.184899  0  3.941804  0
C  C100  1  0.41697568  0.73751819  0.79257828  1  -0.009913  0  -0.077745  -0.121989  0  3.96335  0
C  C101  1  0.56765358  0.78718532  0.80067918  1  0.073459  0  0.004418  0.131956  0  4.112935  0
C  C102  1  0.73513337  0.79381219  0.76215516  1  -0.009272  0  -0.076021  -0.118619  0  3.953808  0
C  C103  1  0.75073915  0.75238037  0.71665174  1  -0.025827  0  -0.076534  -0.11977  0  3.959116  0
C  C104  1  0.59914408  0.70309949  0.70830110  1  0.072353  0  0.002159  0.125422  0  4.118098  0
C  C105  1  0.43240179  0.69611692  0.74703840  1  -0.013183  0  -0.077192  -0.120158  0  3.959201  0
C  C106  1  0.55115433  0.83074975  0.84618107  1  -0.486883  0  -0.027501  -0.048382  0  4.101646  0
C  C107  1  0.61252008  0.66123345  0.66163666  1  -0.369208  0  -0.021138  -0.036841  0  4.093801  0
C  C108  1  0.62073673  0.62471252  0.62166903  1  0.075323  0  -0.0317  -0.186067  0  3.955401  0
C  C109  1  0.54002119  0.86958447  0.88451691  1  0.191771  0  -0.033565  -0.176779  0  3.947931  0
C  C110  1  0.57344478  0.15888318  0.91289092  1  -0.03224  0  -0.017913  -0.128193  0  3.991507  0
C  C111  1  0.58721939  0.34091150  0.58805203  1  -0.026118  0  -0.029427  -0.22981  0  4.016754  0
C  C112  1  0.61410055  0.27700668  0.91482505  1  -0.050586  0  -0.101635  -0.239186  0  3.987763  0
C  C113  1  0.60445806  0.21785289  0.94273596  1  0.531794  0  0.083609  0.230764  0  4.085808  0
C  C114  1  0.55121267  0.16021943  0.85618462  1  -0.060921  0  -0.08348  -0.132121  0  3.96481  0
C  C115  1  0.56495706  0.21966146  0.82598260  1  0.043579  0  -0.005996  0.040135  0  3.972977  0
C  C116  1  0.59797405  0.27868089  0.85667438  1  0.036443  0  -0.012457  0.005857  0  4.010502  0
C  C117  1  0.55286040  0.22170198  0.76618448  1  -0.039132  0  -0.014378  0.013418  0  3.974705  0
C  C118  1  0.57452531  0.28289990  0.73815041  1  0.066428  0  -0.004568  0.075805  0  3.964112  0
C  C119  1  0.61243481  0.34106416  0.76982156  1  -0.048702  0  -0.126258  -0.308686  0  4.049559  0
C  C120  1  0.62304136  0.33925480  0.82655629  1  0.431455  0  0.079461  0.207625  0  4.085679  0
C  C121  1  0.52572203  0.16329368  0.73455126  1  0.000547  0  -0.096994  -0.125665  0  4.046796  0
C  C122  1  0.53879170  0.16404264  0.67779487  1  -0.12353  0  -0.10436  -0.142327  0  4.059827  0
C  C123  1  0.57065140  0.22397272  0.64783990  1  -0.002145  0  -0.017004  0.003153  0  4.039056  0
C  C124  1  0.56967887  0.28477967  0.67796881  1  -0.032711  0  -0.012773  -0.061893  0  3.928423  0
C  C125  1  0.59582784  0.22290926  0.58890651  1  0.533486  0  0.066097  0.078635  0  4.066331  0
C  C126  1  0.60694419  0.28135882  0.55906340  1  0.574307  0  0.074393  0.140275  0  4.107443  0
C  C127  1  0.56576000  0.34304671  0.64556411  1  0.539145  0  0.077822  0.181072  0  4.024126  0
C  C128  1  0.56591310  0.09568569  0.94415017  1  1.632379  0  0.281348  0.683958  0  4.069843  0
C  C129  1  0.53180513  0.91826610  0.92792520  1  1.71074  0  0.269277  0.70365  0  4.185245  0
C  C130  1  0.00884610  0.90342477  0.05918570  1  1.588382  0  0.279185  0.682116  0  4.071822  0
C  C131  1  0.04222884  0.07978755  0.07500133  1  1.699734  0  0.274315  0.700479  0  4.184553  0
C  C132  1  0.69909162  0.45527183  0.83196041  1  0.446366  0  -0.062691  0.093275  0  3.918275  0
C  C133  1  0.73897117  0.50564071  0.87676466  1  -0.036005  0  -0.242732  -0.398953  0  3.989817  0
C  C134  1  0.75042560  0.64333212  0.35343831  1  0.401345  0  -0.068535  0.090584  0  3.888793  0
C  C135  1  0.60868826  0.59654501  0.32417190  1  -0.066251  0  -0.247959  -0.38336  0  3.966494  0
C  C136  1  0.33044490  0.41606068  0.68582276  1  0.363703  0  -0.067861  0.089443  0  3.89208  0
C  C137  1  0.31338348  0.48813613  0.69893623  1  -0.035318  0  -0.247426  -0.39549  0  3.973453  0
C  C138  1  0.81530516  0.27104585  0.47564659  1  0.414574  0  -0.066024  0.097024  0  3.882599  0
C  C139  1  0.78463017  0.23649839  0.42098180  1  -0.070763  0  -0.248112  -0.397145  0  3.991729  0
C  C140  1  0.47490908  0.24001398  0.03512358  1  0.44894  0  -0.064734  0.095793  0  3.914956  0
C  C141  1  0.52784141  0.22500621  0.09392915  1  -0.105039  0  -0.248937  -0.401265  0  3.984738  0
C  C142  1  0.77462009  0.12666453  0.56302751  1  0.413421  0  -0.067519  0.08514  0  3.918521  0
C  C143  1  0.73190984  0.06165457  0.53477176  1  -0.06316  0  -0.243112  -0.393094  0  3.991998  0
C  C144  1  0.91934733  0.92248906  0.20359617  1  0.384963  0  -0.067079  0.086614  0  3.911003  0
C  C145  1  0.96953317  0.98948094  0.22733892  1  -0.017577  0  -0.245511  -0.391113  0  3.981057  0
C  C146  1  0.13443130  0.54153958  0.22256924  1  0.394549  0  -0.061982  0.095295  0  3.915372  0
C  C147  1  0.19428882  0.48693391  0.25985500  1  -0.0495  0  -0.245421  -0.39639  0  3.96665  0
O  O148  1  0.42389880  0.42394750  0.54104774  1  -1.254788  0  -0.234307  -0.597812  0  2.316939  0
O  O149  1  0.79541394  0.56775460  0.55299611  1  -1.232152  0  -0.22179  -0.563142  0  2.28361  0
O  O150  1  0.97277696  0.57490804  0.45189256  1  -1.257468  0  -0.227152  -0.581734  0  2.360607  0
O  O151  1  0.76594739  0.43086868  0.54475354  1  -1.252401  0  -0.233961  -0.600974  0  2.319305  0
O  O152  1  0.94599458  0.44221567  0.43983325  1  -1.237333  0  -0.229498  -0.587929  0  2.294793  0
O  O153  1  0.45298408  0.55434221  0.56309701  1  -1.230448  0  -0.222268  -0.575058  0  2.306404  0
O  O154  1  0.62257315  0.50730317  0.46563201  1  -1.465294  0  -0.447076  -0.987533  0  2.200025  0
O  O155  1  0.29119090  0.44988650  0.43695875  1  -1.237812  0  -0.229086  -0.585276  0  2.289027  0
O  O156  1  0.30755590  0.58172099  0.46614782  1  -1.262781  0  -0.231353  -0.586159  0  2.342445  0
O  O157  1  0.10827203  0.49368036  0.53299771  1  -1.409037  0  -0.447114  -0.988457  0  2.196461  0
O  O158  1  0.70085092  0.94558873  0.93969822  1  -1.238062  0  -0.231225  -0.584975  0  2.293087  0
O  O159  1  0.39484651  0.06481940  0.94969021  1  -1.271398  0  -0.23281  -0.599155  0  2.315474  0
O  O160  1  0.21554563  0.06917235  0.05250392  1  -1.227494  0  -0.224405  -0.569184  0  2.283316  0
O  O161  1  0.35759711  0.93003783  0.94928258  1  -1.231459  0  -0.229433  -0.575046  0  2.279067  0
O  O162  1  0.17813037  0.93479309  0.05199307  1  -1.25795  0  -0.22999  -0.598809  0  2.352949  0
O  O163  1  0.73033383  0.07721834  0.96253213  1  -1.256771  0  -0.226338  -0.582777  0  2.321942  0
O  O164  1  0.52942660  0.99444518  0.03538523  1  -1.429744  0  -0.446584  -0.991964  0  2.194533  0
O  O165  1  0.84268202  0.92012954  0.04014013  1  -1.260227  0  -0.23292  -0.592745  0  2.303037  0
O  O166  1  0.87296821  0.05227096  0.06395229  1  -1.230855  0  -0.227612  -0.576698  0  2.282103  0
O  O167  1  0.04298657  0.00463779  0.96719016  1  -1.426222  0  -0.446748  -0.992498  0  2.198237  0
O  O168  1  0.66193734  0.39304815  0.85885311  1  -1.075547  0  -0.18248  -0.201614  0  2.551127  0
O  O169  1  0.95447885  0.62150549  0.34222949  1  -1.07392  0  -0.200156  -0.241427  0  2.571726  0
O  O170  1  0.53952142  0.40494422  0.66832814  1  -1.059975  0  -0.204401  -0.233283  0  2.481022  0
O  O171  1  0.61863327  0.28296244  0.50209351  1  -1.107048  0  -0.203218  -0.219986  0  2.489912  0
O  O172  1  0.62991965  0.21275362  0.99880004  1  -1.067034  0  -0.200086  -0.230772  0  2.496999  0
O  O173  1  0.59496282  0.16427455  0.56034326  1  -1.068762  0  -0.206692  -0.22774  0  2.520339  0
O  O174  1  0.09433179  0.90229289  0.17022145  1  -1.066054  0  -0.203435  -0.239716  0  2.508307  0
O  O175  1  0.16212324  0.60180729  0.25231515  1  -1.060352  0  -0.166869  -0.181039  0  2.616264  0
