# generated using pymatgen
data_Al2H16C24N2O11
_symmetry_space_group_name_H-M   'P 1'
_cell_length_a   6.70807392
_cell_length_b   11.16204791
_cell_length_c   17.62303266
_cell_angle_alpha   78.92850698
_cell_angle_beta   79.91488247
_cell_angle_gamma   72.36501592
_symmetry_Int_Tables_number   1
_chemical_formula_structural   Al2H16C24N2O11
_chemical_formula_sum   'Al2 H16 C24 N2 O11'
_cell_volume   1224.44031291
_cell_formula_units_Z   1
loop_
 _symmetry_equiv_pos_site_id
 _symmetry_equiv_pos_as_xyz
  1  'x, y, z'
loop_
 _atom_site_type_symbol
 _atom_site_label
 _atom_site_symmetry_multiplicity
 _atom_site_fract_x
 _atom_site_fract_y
 _atom_site_fract_z
 _atom_site_occupancy
 _atom_site_pbe_bader_charge
 _atom_site_pbe_bader_spin_density
 _atom_site_pbe_cm5_charge
 _atom_site_pbe_ddec_charge
 _atom_site_pbe_ddec_spin_density
 _atom_site_pbe_ddec_sum_bond_order
 _atom_site_pbe_magmom
Al  Al0  1  0.48756669  0.52273381  0.49850432  1  2.504292  0  0.402334  1.640881  0  2.579212  0
Al  Al1  1  0.98899554  0.52044139  0.49853067  1  2.504256  0  0.399105  1.642907  0  2.58639  0
H  H2  1  0.23629814  0.60969225  0.40540114  1  0.618947  0  0.351061  0.427332  0  0.857367  0
H  H3  1  0.78305312  0.37480313  0.55865510  1  0.600269  0  0.355552  0.43288  0  0.84922  0
H  H4  1  0.11591685  0.14168131  0.48484961  1  0.078454  0  0.103907  0.110375  0  1.01647  0
H  H5  1  0.74346258  0.13676982  0.51314962  1  0.089896  0  0.110885  0.129692  0  1.003103  0
H  H6  1  0.23734570  0.90756118  0.48433404  1  0.134435  0  0.106962  0.117133  0  1.040972  0
H  H7  1  0.58213144  0.42762320  0.27740291  1  0.107643  0  0.104756  0.114326  0  1.008082  0
H  H8  1  0.67684038  0.38878582  0.13875075  1  0.081681  0  0.099281  0.102507  0  1.022103  0
H  H9  1  0.14945307  0.53847803  0.26334120  1  0.067686  0  0.107018  0.120752  0  1.005983  0
H  H10  1  0.81588945  0.53660985  0.73033928  1  0.081525  0  0.112245  0.129642  0  0.99569  0
H  H11  1  0.48522527  0.43945735  0.73399160  1  0.102616  0  0.106173  0.116405  0  1.006104  0
H  H12  1  0.43095181  0.39818896  0.87994765  1  0.089539  0  0.097915  0.100156  0  1.028609  0
H  H13  1  0.92637120  0.80364538  0.51155980  1  0.636472  0  0.317147  0.361267  0  0.95619  0
H  H14  1  0.29451128  0.51482239  0.05551409  1  0.441597  0  0.299488  0.294033  0  0.970637  0
H  H15  1  0.35870700  0.55896009  0.13459913  1  0.45398  0  0.311039  0.305631  0  0.944839  0
H  H16  1  0.69756010  0.51643691  0.94286070  1  0.424187  0  0.299001  0.292333  0  0.971329  0
H  H17  1  0.59053059  0.56121891  0.85629073  1  0.461705  0  0.311395  0.306038  0  0.942514  0
C  C18  1  0.80370643  0.51353219  0.35952998  1  1.557383  0  0.268371  0.649629  0  4.077051  0
C  C19  1  0.62435280  0.75107490  0.49730757  1  1.514616  0  0.267466  0.653675  0  4.076982  0
C  C20  1  0.18308230  0.51122093  0.63796399  1  1.518625  0  0.268668  0.64097  0  4.091918  0
C  C21  1  0.35053111  0.29269629  0.50091762  1  1.580735  0  0.269115  0.646029  0  4.080573  0
C  C22  1  0.55777017  0.88957905  0.49807379  1  -0.030841  0  -0.031734  -0.19393  0  3.97953  0
C  C23  1  0.42270067  0.15276387  0.49941865  1  -0.037995  0  -0.0128  -0.017319  0  4.004174  0
C  C24  1  0.70264651  0.95495017  0.50650037  1  0.50863  0  0.096299  0.316139  0  4.061508  0
C  C25  1  0.27891095  0.08847070  0.49096981  1  -0.035729  0  -0.098228  -0.129608  0  3.999393  0
C  C26  1  0.63256151  0.08659164  0.50688547  1  0.002572  0  -0.095998  -0.217052  0  3.926986  0
C  C27  1  0.34716966  0.95851324  0.49029460  1  0.036832  0  -0.081027  -0.061383  0  3.993885  0
C  C28  1  0.85913442  0.48822165  0.27731714  1  -0.044272  0  -0.0178  -0.025515  0  4.015696  0
C  C29  1  0.72461839  0.44515267  0.24288828  1  -0.031666  0  -0.104237  -0.138465  0  4.034487  0
C  C30  1  0.77785386  0.42385083  0.16595738  1  -0.04074  0  -0.09264  -0.122375  0  4.012841  0
C  C31  1  0.96132377  0.44783034  0.12100917  1  0.071759  0  -0.01559  0.026922  0  4.094406  0
C  C32  1  0.09985795  0.48905412  0.15655384  1  0.430935  0  0.10707  0.27228  0  4.068998  0
C  C33  1  0.04602291  0.50727731  0.23488044  1  0.036873  0  -0.097015  -0.216407  0  3.941281  0
C  C34  1  0.00733810  0.43817470  0.04075505  1  -0.407561  0  -0.051246  -0.113082  0  4.148378  0
C  C35  1  0.05688274  0.43986228  0.97025658  1  0.016342  0  -0.049195  -0.106973  0  4.148018  0
C  C36  1  0.09174512  0.45192540  0.88813621  1  0.043648  0  -0.016677  0.024173  0  4.096145  0
C  C37  1  0.91375461  0.49150015  0.84587688  1  0.391868  0  0.106365  0.271313  0  4.067022  0
C  C38  1  0.94850393  0.50846669  0.76419894  1  0.053341  0  -0.094262  -0.21578  0  3.931911  0
C  C39  1  0.15212195  0.49156095  0.72475491  1  0.06344  0  -0.015048  -0.019509  0  4.016718  0
C  C40  1  0.32773378  0.45324230  0.76612620  1  -0.047861  0  -0.103738  -0.141066  0  4.033964  0
C  C41  1  0.29651899  0.43139312  0.84690604  1  -0.050175  0  -0.092921  -0.122606  0  4.015789  0
N  N42  1  0.28308652  0.50812038  0.11424292  1  -1.253054  0  -0.589987  -0.612919  0  3.365668  0
N  N43  1  0.71363290  0.50943196  0.88543804  1  -1.249877  0  -0.58989  -0.611755  0  3.362107  0
O  O44  1  0.61691226  0.51600484  0.39174741  1  -1.269655  0  -0.239441  -0.603442  0  2.340948  0
O  O45  1  0.82170351  0.69345412  0.50187068  1  -1.253405  0  -0.23371  -0.598964  0  2.390837  0
O  O46  1  0.02983637  0.51215967  0.60388768  1  -1.265578  0  -0.235837  -0.591771  0  2.352523  0
O  O47  1  0.48831065  0.34726066  0.50614936  1  -1.259686  0  -0.238858  -0.604523  0  2.35292  0
O  O48  1  0.36109149  0.52373159  0.60406252  1  -1.265751  0  -0.234201  -0.585989  0  2.343964  0
O  O49  1  0.15452485  0.34729165  0.49758638  1  -1.27153  0  -0.238903  -0.605717  0  2.352667  0
O  O50  1  0.94661949  0.53210049  0.39154251  1  -1.264147  0  -0.242525  -0.609924  0  2.339627  0
O  O51  1  0.48939782  0.69567500  0.49161916  1  -1.256532  0  -0.226964  -0.567777  0  2.338364  0
O  O52  1  0.22471685  0.58129360  0.46115745  1  -1.425  0  -0.447931  -0.985699  0  2.170841  0
O  O53  1  0.75186731  0.46242920  0.53355116  1  -1.40258  0  -0.448172  -0.989116  0  2.193173  0
O  O54  1  0.90690045  0.89542520  0.51450307  1  -1.143144  0  -0.342043  -0.436754  0  2.305802  0
