# generated using pymatgen
data_Al3H19C42(S3O16)2
_symmetry_space_group_name_H-M   'P 1'
_cell_length_a   14.01801188
_cell_length_b   14.05258985
_cell_length_c   28.11469710
_cell_angle_alpha   90.03544614
_cell_angle_beta   90.11625914
_cell_angle_gamma   120.39817604
_symmetry_Int_Tables_number   1
_chemical_formula_structural   Al3H19C42(S3O16)2
_chemical_formula_sum   'Al6 H38 C84 S12 O64'
_cell_volume   4776.92713265
_cell_formula_units_Z   2
loop_
 _symmetry_equiv_pos_site_id
 _symmetry_equiv_pos_as_xyz
  1  'x, y, z'
loop_
 _atom_site_type_symbol
 _atom_site_label
 _atom_site_symmetry_multiplicity
 _atom_site_fract_x
 _atom_site_fract_y
 _atom_site_fract_z
 _atom_site_occupancy
 _atom_site_pbe_bader_charge
 _atom_site_pbe_bader_spin_density
 _atom_site_pbe_cm5_charge
 _atom_site_pbe_ddec_charge
 _atom_site_pbe_ddec_spin_density
 _atom_site_pbe_ddec_sum_bond_order
 _atom_site_pbe_magmom
Al  Al0  1  0.48899621  0.24928161  0.50091120  1  2.490507  0  0.404971  1.681728  0  2.554955  0
Al  Al1  1  0.71257876  0.23785986  0.50001040  1  2.483099  0  0.51167  1.659652  0  2.510624  0
Al  Al2  1  0.73368907  0.46107394  0.49997241  1  2.476496  0  0.508765  1.658683  0  2.519923  0
Al  Al3  1  0.24921046  0.48982311  0.99914564  1  2.490488  0  0.404951  1.680018  0  2.558679  0
Al  Al4  1  0.23748483  0.71285210  0.00024647  1  2.483669  0  0.511981  1.659687  0  2.511664  0
Al  Al5  1  0.46186805  0.73450613  0.00071139  1  2.483595  0  0.510067  1.660309  0  2.515388  0
H  H6  1  0.98064826  0.63477873  0.77363211  1  0.094644  0  0.108445  0.113024  0  0.98925  0
H  H7  1  0.66322566  0.12487377  0.20338323  1  0.151509  0  0.108256  0.120828  0  1.025278  0
H  H8  1  0.46552394  0.33968329  0.20785312  1  0.161521  0  0.106916  0.117055  0  1.022733  0
H  H9  1  0.87543156  0.54307884  0.21458466  1  0.148445  0  0.106338  0.115823  0  1.028501  0
H  H10  1  0.82473790  0.43150858  0.73179371  1  0.137088  0  0.11719  0.12761  0  0.971783  0
H  H11  1  0.57294351  0.40094133  0.73684467  1  0.12495  0  0.117057  0.130246  0  0.974943  0
H  H12  1  0.60818372  0.17382392  0.74050542  1  0.160988  0  0.116142  0.129918  0  0.982719  0
H  H13  1  0.41500846  0.81985062  0.23063834  1  0.115657  0  0.116695  0.118317  0  0.964986  0
H  H14  1  0.40853474  0.58587858  0.23484935  1  0.094561  0  0.115533  0.117901  0  0.967111  0
H  H15  1  0.18174658  0.60264411  0.23960320  1  0.10963  0  0.115528  0.11867  0  0.968807  0
H  H16  1  0.21773330  0.55794414  0.75384723  1  0.086976  0  0.111471  0.109626  0  0.982201  0
H  H17  1  0.37439936  0.35926069  0.78061409  1  0.119311  0  0.111973  0.116686  0  0.977309  0
H  H18  1  0.45629205  0.67319712  0.75578305  1  0.075486  0  0.109688  0.106864  0  0.988654  0
H  H19  1  0.33563423  0.78204590  0.75974691  1  0.093511  0  0.111121  0.109431  0  0.983768  0
H  H20  1  0.55166324  0.21277416  0.25673799  1  0.093837  0  0.11211  0.110392  0  0.978797  0
H  H21  1  0.66978846  0.45608850  0.25936278  1  0.080119  0  0.110669  0.108519  0  0.982741  0
H  H22  1  0.78842529  0.33608311  0.26303522  1  0.07167  0  0.112101  0.110059  0  0.979159  0
H  H23  1  0.88003378  0.18291734  0.73647081  1  0.63303  0  0.326688  0.390824  0  0.89963  0
H  H24  1  0.82889191  0.71228381  0.73785427  1  0.660226  0  0.325181  0.388954  0  0.905223  0
H  H25  1  0.28882641  0.10873463  0.73832483  1  0.632352  0  0.327772  0.390211  0  0.902263  0
H  H26  1  0.18299633  0.87072916  0.22011349  1  0.661534  0  0.319633  0.390508  0  0.929495  0
H  H27  1  0.69143959  0.81739222  0.22003688  1  0.666559  0  0.318558  0.38857  0  0.933275  0
H  H28  1  0.64847279  0.01999987  0.78761054  1  0.120119  0  0.11134  0.115476  0  0.978691  0
H  H29  1  0.13260242  0.32254398  0.22079115  1  0.680129  0  0.32011  0.390673  0  0.930119  0
H  H30  1  0.04947900  0.23302999  0.76325536  1  0.652827  0  0.335897  0.395619  0  0.881176  0
H  H31  1  0.77831037  0.82796417  0.76326449  1  0.642427  0  0.333333  0.392832  0  0.887626  0
H  H32  1  0.17693691  0.93923032  0.76147048  1  0.651167  0  0.333568  0.392523  0  0.88776  0
H  H33  1  0.25714788  0.07030908  0.27383978  1  0.674123  0  0.322219  0.394525  0  0.916262  0
H  H34  1  0.82160734  0.75227593  0.27381506  1  0.659011  0  0.32045  0.393292  0  0.92019  0
H  H35  1  0.93306786  0.18633258  0.27290953  1  0.661936  0  0.321576  0.394814  0  0.916995  0
H  H36  1  0.61547100  0.96804863  0.27711805  1  0.143295  0  0.110835  0.118634  0  0.995362  0
H  H37  1  0.35993856  0.38932887  0.28262546  1  0.132508  0  0.111545  0.118064  0  0.98814  0
H  H38  1  0.03257694  0.64499898  0.28973934  1  0.115757  0  0.112302  0.118463  0  0.987084  0
H  H39  1  0.13246373  0.66968449  0.69877150  1  0.161049  0  0.107674  0.118852  0  1.025655  0
H  H40  1  0.33638738  0.47020784  0.70403912  1  0.136967  0  0.107257  0.117291  0  1.020051  0
H  H41  1  0.54260769  0.86727180  0.71114521  1  0.110524  0  0.105636  0.113045  0  1.024517  0
H  H42  1  0.30451019  0.14397844  0.47538950  1  0.597468  0  0.298899  0.391629  0  0.90991  0
H  H43  1  0.16947716  0.30782820  0.02734039  1  0.580274  0  0.299407  0.394305  0  0.905379  0
C  C44  1  0.58095989  0.44635485  0.56605107  1  1.656892  0  0.284711  0.704065  0  4.170055  0
C  C45  1  0.47273825  0.99419698  0.19528613  1  0.094356  0  0.024435  0.134049  0  3.762368  0
C  C46  1  0.52416390  0.52855884  0.19872234  1  0.109443  0  0.024049  0.140187  0  3.766005  0
C  C47  1  0.00701011  0.48780890  0.20282505  1  0.129165  0  0.024786  0.140475  0  3.760438  0
C  C48  1  0.95901997  0.39986848  0.76605561  1  -0.119151  0  0.005595  -0.12045  0  3.587919  0
C  C49  1  0.61124875  0.57118648  0.76855719  1  -0.107642  0  0.004871  -0.122686  0  3.593441  0
C  C50  1  0.43613355  0.03992797  0.77053136  1  -0.127497  0  0.00604  -0.119569  0  3.589204  0
C  C51  1  0.38539916  0.95546287  0.26505236  1  -0.123843  0  0.002043  -0.135333  0  3.675974  0
C  C52  1  0.57737536  0.61961895  0.26767226  1  -0.127732  0  0.001352  -0.137321  0  3.677914  0
C  C53  1  0.04648586  0.43117568  0.27040326  1  -0.109089  0  0.002105  -0.135917  0  3.678647  0
C  C54  1  0.91270913  0.46173430  0.73656763  1  -0.012683  0  -0.055007  -0.060156  0  3.578229  0
C  C55  1  0.55170060  0.12021891  0.56706334  1  1.669075  0  0.282628  0.704743  0  4.165046  0
C  C56  1  0.54493438  0.46004141  0.74093244  1  0.008163  0  -0.055755  -0.062115  0  3.579061  0
C  C57  1  0.54930053  0.08603419  0.74455699  1  -0.012626  0  -0.056992  -0.064064  0  3.579157  0
C  C58  1  0.44700875  0.90763395  0.23665388  1  -0.007933  0  -0.052708  -0.058864  0  3.586444  0
C  C59  1  0.46539217  0.55532272  0.24045615  1  0.012997  0  -0.05448  -0.061521  0  3.593073  0
C  C60  1  0.09377381  0.54451496  0.24477632  1  -0.003439  0  -0.054352  -0.062458  0  3.589151  0
C  C61  1  0.07280048  0.52921072  0.83933749  1  -0.392906  0  -0.025256  -0.04574  0  4.063546  0
C  C62  1  0.48638200  0.56388442  0.84227538  1  -0.119563  0  -0.024081  -0.041084  0  4.064183  0
C  C63  1  0.43870401  0.92459157  0.84623687  1  -0.432713  0  -0.012208  -0.016435  0  4.042914  0
C  C64  1  0.51115973  0.06227636  0.34113585  1  -0.493051  0  -0.024039  -0.04154  0  4.055332  0
C  C65  1  0.56418432  0.49705592  0.34400120  1  -0.253615  0  -0.025011  -0.044678  0  4.060127  0
C  C66  1  0.86042883  0.40869659  0.56313277  1  1.669702  0  0.288514  0.720105  0  4.150721  0
C  C67  1  0.93570327  0.43673825  0.34801074  1  -0.498952  0  -0.012081  -0.017584  0  4.033697  0
C  C68  1  0.96109259  0.45978885  0.64668670  1  -0.04292  0  -0.010778  -0.012117  0  4.031755  0
C  C69  1  0.54111907  0.50268193  0.65040504  1  -0.01019  0  -0.021013  -0.035588  0  4.052714  0
C  C70  1  0.51067093  0.03398222  0.65358159  1  -0.48975  0  -0.022683  -0.039166  0  4.052602  0
C  C71  1  0.45537290  0.96172023  0.14699063  1  -0.156663  0  -0.010684  -0.015139  0  4.02969  0
C  C72  1  0.50608091  0.54285013  0.15048499  1  -0.431026  0  -0.023192  -0.03902  0  4.05217  0
C  C73  1  0.03577990  0.50675815  0.15418734  1  -0.417393  0  -0.023958  -0.039917  0  4.049209  0
C  C74  1  0.58228800  0.44269626  0.43238253  1  1.692855  0  0.280463  0.706064  0  4.166985  0
C  C75  1  0.55173668  0.12468869  0.43148572  1  1.676903  0  0.282326  0.71293  0  4.15991  0
C  C76  1  0.85503105  0.40587453  0.43514976  1  1.673459  0  0.287959  0.718135  0  4.155422  0
C  C77  1  0.44516508  0.57867227  0.06625890  1  1.683937  0  0.280886  0.708778  0  4.164172  0
C  C78  1  0.44413994  0.58679653  0.93204678  1  1.695976  0  0.284377  0.704715  0  4.167109  0
C  C79  1  0.12884297  0.55501235  0.93054250  1  1.661098  0  0.284296  0.704186  0  4.165238  0
C  C80  1  0.40342465  0.85283585  0.93496984  1  1.640531  0  0.287463  0.716956  0  4.155736  0
C  C81  1  0.08361008  0.59353878  0.71872812  1  -0.046874  0  -0.066076  -0.073058  0  3.575384  0
C  C82  1  0.41400344  0.49903006  0.72322989  1  -0.02807  0  -0.064319  -0.073837  0  3.575991  0
C  C83  1  0.51220926  0.91575833  0.72893328  1  -0.003463  0  -0.066137  -0.074105  0  3.578613  0
C  C84  1  0.58449128  0.07709673  0.22179208  1  -0.039264  0  -0.062548  -0.068767  0  3.560989  0
C  C85  1  0.49756667  0.41896168  0.22581877  1  -0.052082  0  -0.063039  -0.069032  0  3.563587  0
C  C86  1  0.92347406  0.51094303  0.23145236  1  -0.036069  0  -0.063686  -0.070183  0  3.567179  0
C  C87  1  0.99930037  0.57400170  0.75920980  1  0.01893  0  -0.06466  -0.06302  0  3.58008  0
C  C88  1  0.11893496  0.55239347  0.06702841  1  1.699092  0  0.281783  0.708664  0  4.162741  0
C  C89  1  0.43505673  0.43740633  0.76459130  1  -0.016216  0  -0.061407  -0.059714  0  3.572879  0
C  C90  1  0.57100929  0.00051673  0.77023139  1  -0.021548  0  -0.061997  -0.060493  0  3.574035  0
C  C91  1  0.55785054  0.98986197  0.26171105  1  -0.022736  0  -0.061636  -0.059454  0  3.572668  0
C  C92  1  0.43874104  0.44660419  0.26617441  1  -0.019604  0  -0.060861  -0.05881  0  3.570965  0
C  C93  1  0.01098335  0.56781720  0.27195081  1  -0.007916  0  -0.060651  -0.058076  0  3.57376  0
C  C94  1  0.09240381  0.54063288  0.88178265  1  0.192417  0  -0.01613  -0.144326  0  3.923011  0
C  C95  1  0.47145339  0.57329653  0.88417545  1  -0.079409  0  -0.016952  -0.146536  0  3.924325  0
C  C96  1  0.42537650  0.89893378  0.88804728  1  0.250701  0  -0.01993  -0.160534  0  3.92281  0
C  C97  1  0.52792618  0.08378612  0.38332789  1  0.248101  0  -0.021061  -0.155242  0  3.924744  0
C  C98  1  0.57088940  0.47743080  0.38560476  1  0.013559  0  -0.02035  -0.152785  0  3.931842  0
C  C99  1  0.41101835  0.86113411  0.06357551  1  1.68086  0  0.288107  0.718649  0  4.154487  0
C  C100  1  0.90714305  0.42538767  0.38945599  1  0.273827  0  -0.021852  -0.166315  0  3.923402  0
C  C101  1  0.92266402  0.43903340  0.60662564  1  -0.151957  0  -0.02165  -0.167951  0  3.919385  0
C  C102  1  0.55808001  0.48162349  0.61043593  1  -0.156445  0  -0.017781  -0.152567  0  3.92575  0
C  C103  1  0.52821069  0.06666092  0.61269209  1  0.265757  0  -0.018805  -0.151803  0  3.92243  0
C  C104  1  0.43778287  0.92390873  0.10685434  1  -0.055771  0  -0.02153  -0.166393  0  3.919737  0
C  C105  1  0.48368386  0.55798797  0.11040500  1  0.222597  0  -0.020634  -0.155223  0  3.926303  0
C  C106  1  0.06671886  0.52549508  0.11306564  1  0.166994  0  -0.019134  -0.152139  0  3.920116  0
C  C107  1  0.13076996  0.53247277  0.74849835  1  -0.023671  0  -0.059621  -0.074775  0  3.609874  0
C  C108  1  0.47957710  0.61043966  0.75101507  1  0.002435  0  -0.060388  -0.074555  0  3.617936  0
C  C109  1  0.39860197  0.86871868  0.75488273  1  -0.026895  0  -0.058225  -0.07249  0  3.611745  0
C  C110  1  0.99593597  0.48089882  0.69466355  1  0.093567  0  0.021018  0.125409  0  3.776355  0
C  C111  1  0.52367970  0.12568580  0.25067944  1  0.001537  0  -0.059387  -0.072902  0  3.610913  0
C  C112  1  0.60956979  0.48249967  0.25347866  1  -0.000197  0  -0.059993  -0.074507  0  3.614497  0
C  C113  1  0.87546340  0.39748335  0.25733288  1  0.006532  0  -0.058455  -0.070766  0  3.611031  0
C  C114  1  0.04723449  0.51392072  0.79027646  1  0.12282  0  0.023874  0.137166  0  3.766987  0
C  C115  1  0.49979086  0.54895701  0.79359288  1  0.086642  0  0.023398  0.13602  0  3.77549  0
C  C116  1  0.45726423  0.95258964  0.79752279  1  0.120959  0  0.022108  0.128432  0  3.772833  0
C  C117  1  0.49731267  0.03866939  0.29187571  1  0.136603  0  0.023766  0.136189  0  3.768701  0
C  C118  1  0.55090965  0.50992968  0.29506538  1  0.119745  0  0.023106  0.139674  0  3.770918  0
C  C119  1  0.96267519  0.45419630  0.29917660  1  0.130131  0  0.023206  0.131853  0  3.76761  0
C  C120  1  0.04456565  0.42042054  0.72550322  1  -0.113647  0  0.000405  -0.134922  0  3.699567  0
C  C121  1  0.52432508  0.52081749  0.69827287  1  0.089706  0  0.022045  0.134511  0  3.778074  0
C  C122  1  0.58939051  0.63329629  0.72714600  1  -0.130168  0  -0.000596  -0.13949  0  3.703193  0
C  C123  1  0.37699039  0.95419462  0.72909812  1  -0.109971  0  9.9e-05  -0.137658  0  3.697986  0
C  C124  1  0.41285750  0.04452935  0.22533968  1  -0.133758  0  -0.001178  -0.14689  0  3.701403  0
C  C125  1  0.63721797  0.59127448  0.22752013  1  -0.122203  0  -0.002128  -0.148055  0  3.69966  0
C  C126  1  0.95736141  0.37329516  0.23002832  1  -0.127871  0  -0.0013  -0.146093  0  3.696337  0
C  C127  1  0.49166668  0.00254428  0.70192393  1  0.125134  0  0.02192  0.135202  0  3.773361  0
S  S128  1  0.87344690  0.27533556  0.79888486  1  3.037874  0  0.546238  1.140964  0  5.95425  0
S  S129  1  0.31920788  0.08334830  0.20353661  1  3.11495  0  0.549075  1.147111  0  6.033818  0
S  S130  1  0.76903423  0.68468694  0.20428261  1  3.090457  0  0.549461  1.148852  0  6.026815  0
S  S131  1  0.91977338  0.24404994  0.20455561  1  3.102568  0  0.549797  1.149627  0  6.026917  0
S  S132  1  0.73814246  0.61005255  0.79960912  1  3.041276  0  0.546359  1.146346  0  5.943579  0
S  S133  1  0.39463511  0.12778680  0.79924728  1  3.066612  0  0.54742  1.147229  0  5.950553  0
S  S134  1  0.25139922  0.87646042  0.28912652  1  3.111481  0  0.546372  1.145272  0  6.039586  0
S  S135  1  0.63291409  0.75478005  0.29016874  1  3.099291  0  0.545389  1.14588  0  6.03574  0
S  S136  1  0.12648646  0.37539648  0.29170302  1  3.116305  0  0.545837  1.144741  0  6.042292  0
S  S137  1  0.07231426  0.32312849  0.69933298  1  3.084043  0  0.545218  1.139161  0  6.036996  0
S  S138  1  0.68679271  0.75724436  0.69965621  1  3.070528  0  0.543886  1.141522  0  6.027788  0
S  S139  1  0.25509149  0.92581577  0.69907725  1  3.077332  0  0.546768  1.140337  0  6.025398  0
O  O140  1  0.49115896  0.15788422  0.55415387  1  -1.210614  0  -0.196153  -0.533488  0  2.282232  0
O  O141  1  0.35061956  0.50559828  0.05204142  1  -1.211962  0  -0.20551  -0.557915  0  2.293555  0
O  O142  1  0.13557567  0.64361373  0.04850851  1  -1.250645  0  -0.23698  -0.596151  0  2.225117  0
O  O143  1  0.48356349  0.83919780  0.04812083  1  -1.239414  0  -0.221198  -0.580911  0  2.247624  0
O  O144  1  0.48351200  0.14522354  0.45131058  1  -1.214846  0  -0.206793  -0.561925  0  2.291127  0
O  O145  1  0.82948022  0.31532981  0.45601381  1  -1.242837  0  -0.221313  -0.579487  0  2.251392  0
O  O146  1  0.67067431  0.51019444  0.45561263  1  -1.25585  0  -0.239821  -0.601356  0  2.230346  0
O  O147  1  0.15867161  0.48998089  0.94599257  1  -1.201956  0  -0.19195  -0.52079  0  2.284277  0
O  O148  1  0.30753044  0.82097141  0.95212642  1  -1.236676  0  -0.220898  -0.577249  0  2.246395  0
O  O149  1  0.51014761  0.68037480  0.95201569  1  -1.255006  0  -0.23742  -0.597896  0  2.232111  0
O  O150  1  0.50805461  0.34843885  0.44577588  1  -1.208414  0  -0.20317  -0.547857  0  2.284746  0
O  O151  1  0.81971763  0.30907958  0.54900804  1  -1.244617  0  -0.220292  -0.579045  0  2.244401  0
O  O152  1  0.64369687  0.14103626  0.44920188  1  -1.250527  0  -0.235794  -0.594383  0  2.228217  0
O  O153  1  0.83341697  0.47884100  0.45005049  1  -1.238172  0  -0.22125  -0.580231  0  2.247802  0
O  O154  1  0.35690775  0.50888615  0.94959507  1  -1.204349  0  -0.196077  -0.531582  0  2.285509  0
O  O155  1  0.13178651  0.63595107  0.95355316  1  -1.253295  0  -0.239487  -0.603916  0  2.2338  0
O  O156  1  0.47945769  0.84217873  0.95490521  1  -1.233671  0  -0.222179  -0.583239  0  2.253553  0
O  O157  1  0.64664282  0.31648762  0.49992100  1  -1.617973  0  -0.391217  -1.279024  0  2.303563  0
O  O158  1  0.31686567  0.64753396  0.00034731  1  -1.614197  0  -0.39106  -1.278611  0  2.297785  0
O  O159  1  0.91927871  0.28209692  0.84503118  1  -1.256106  0  -0.278044  -0.466972  0  2.119908  0
O  O160  1  0.76099267  0.24924640  0.79227831  1  -1.272408  0  -0.290272  -0.511309  0  2.181487  0
O  O161  1  0.89040275  0.18256171  0.77158229  1  -1.190435  0  -0.365016  -0.565159  0  2.202355  0
O  O162  1  0.67944652  0.50747883  0.54948299  1  -1.251286  0  -0.236235  -0.598449  0  2.238653  0
O  O163  1  0.73370428  0.64519067  0.84683785  1  -1.264237  0  -0.284205  -0.476281  0  2.115185  0
O  O164  1  0.76470527  0.52548404  0.79020624  1  -1.278638  0  -0.290673  -0.512277  0  2.174184  0
O  O165  1  0.82936454  0.72292548  0.77301575  1  -1.219525  0  -0.366184  -0.566903  0  2.197579  0
O  O166  1  0.36496255  0.09387424  0.84746320  1  -1.261493  0  -0.282069  -0.474125  0  2.116502  0
O  O167  1  0.47526178  0.23935057  0.78674983  1  -1.292289  0  -0.290437  -0.514429  0  2.178935  0
O  O168  1  0.27832415  0.09644826  0.77340705  1  -1.19224  0  -0.363227  -0.560473  0  2.197015  0
O  O169  1  0.24451929  0.79356994  0.32069750  1  -1.272221  0  -0.284634  -0.475605  0  2.10061  0
O  O170  1  0.21834819  0.95404453  0.30540503  1  -1.292939  0  -0.305118  -0.540919  0  2.15793  0
O  O171  1  0.18279889  0.81453031  0.24288562  1  -1.241991  0  -0.345478  -0.522182  0  2.209386  0
O  O172  1  0.55790440  0.76288807  0.32193106  1  -1.270078  0  -0.285312  -0.473723  0  2.093266  0
O  O173  1  0.14765074  0.48780058  0.04991314  1  -1.211546  0  -0.203624  -0.553623  0  2.285183  0
O  O174  1  0.74574151  0.79130977  0.30553268  1  -1.294492  0  -0.306757  -0.54287  0  2.157865  0
O  O175  1  0.63608068  0.81844925  0.24303657  1  -1.244791  0  -0.346359  -0.524731  0  2.214486  0
O  O176  1  0.20892973  0.44839198  0.32463264  1  -1.274689  0  -0.283893  -0.471093  0  2.092243  0
O  O177  1  0.04912062  0.26164792  0.30532114  1  -1.30225  0  -0.306383  -0.543425  0  2.158934  0
O  O178  1  0.18880295  0.37647921  0.24451522  1  -1.255279  0  -0.344711  -0.522287  0  2.213636  0
O  O179  1  0.96735581  0.23300614  0.68239922  1  -1.291295  0  -0.301657  -0.528588  0  2.129085  0
O  O180  1  0.16468098  0.37915226  0.66800427  1  -1.269083  0  -0.278187  -0.47228  0  2.122987  0
O  O181  1  0.11479275  0.28231049  0.74355053  1  -1.206574  0  -0.351662  -0.515981  0  2.144783  0
O  O182  1  0.77665077  0.74253865  0.68327037  1  -1.285426  0  -0.302034  -0.528834  0  2.12802  0
O  O183  1  0.63089526  0.79221146  0.66776502  1  -1.268436  0  -0.280222  -0.473864  0  2.115962  0
O  O184  1  0.31561630  0.82780673  0.04549500  1  -1.23579  0  -0.219266  -0.578521  0  2.252323  0
O  O185  1  0.72919310  0.84323813  0.74320169  1  -1.194965  0  -0.355405  -0.520921  0  2.146441  0
O  O186  1  0.26924774  0.03041914  0.68334731  1  -1.280255  0  -0.2932  -0.515942  0  2.12829  0
O  O187  1  0.22526647  0.83726741  0.66623116  1  -1.272261  0  -0.278292  -0.47272  0  2.128213  0
O  O188  1  0.16455369  0.87659053  0.74082031  1  -1.211818  0  -0.355095  -0.522676  0  2.148825  0
O  O189  1  0.37420418  0.17242003  0.17059548  1  -1.279508  0  -0.282121  -0.478122  0  2.120531  0
O  O190  1  0.21897466  0.98315975  0.18890026  1  -1.296673  0  -0.299343  -0.530746  0  2.167909  0
O  O191  1  0.29569825  0.13220054  0.24993111  1  -1.243412  0  -0.345798  -0.513968  0  2.171824  0
O  O192  1  0.80265666  0.62874047  0.17185321  1  -1.275255  0  -0.283467  -0.479366  0  2.119274  0
O  O193  1  0.76739075  0.78260931  0.18856681  1  -1.288269  0  -0.299792  -0.529637  0  2.166126  0
O  O194  1  0.84462947  0.71306170  0.25019605  1  -1.229734  0  -0.348339  -0.518631  0  2.173947  0
O  O195  1  0.50958642  0.67238072  0.04634997  1  -1.257461  0  -0.236063  -0.596579  0  2.232022  0
O  O196  1  0.83070924  0.21243436  0.17161803  1  -1.276001  0  -0.281755  -0.479636  0  2.128795  0
O  O197  1  0.02064707  0.24816697  0.18876283  1  -1.287944  0  -0.297198  -0.527921  0  2.166377  0
O  O198  1  0.87086148  0.16490668  0.24917039  1  -1.232475  0  -0.347576  -0.517732  0  2.170724  0
O  O199  1  0.50506525  0.35776530  0.54826144  1  -1.21872  0  -0.193261  -0.524848  0  2.282997  0
O  O200  1  0.63537976  0.12811024  0.54424136  1  -1.249616  0  -0.238878  -0.602903  0  2.225582  0
O  O201  1  0.84641069  0.48253768  0.54318276  1  -1.238001  0  -0.221531  -0.582941  0  2.250564  0
O  O202  1  0.34573951  0.18930828  0.50221114  1  -1.372478  0  -0.56978  -0.98741  0  1.789491  0
O  O203  1  0.18664515  0.34670802  0.99740111  1  -1.355367  0  -0.569581  -0.989766  0  1.787221  0
