# generated using pymatgen
data_Zn2H20C26N8O
_symmetry_space_group_name_H-M   'P 1'
_cell_length_a   14.88211551
_cell_length_b   14.94549217
_cell_length_c   22.96841324
_cell_angle_alpha   89.99789227
_cell_angle_beta   90.01187934
_cell_angle_gamma   100.44753766
_symmetry_Int_Tables_number   1
_chemical_formula_structural   Zn2H20C26N8O
_chemical_formula_sum   'Zn8 H80 C104 N32 O4'
_cell_volume   5023.95235452
_cell_formula_units_Z   4
loop_
 _symmetry_equiv_pos_site_id
 _symmetry_equiv_pos_as_xyz
  1  'x, y, z'
loop_
 _atom_site_type_symbol
 _atom_site_label
 _atom_site_symmetry_multiplicity
 _atom_site_fract_x
 _atom_site_fract_y
 _atom_site_fract_z
 _atom_site_occupancy
 _atom_site_pbe_bader_charge
 _atom_site_pbe_bader_spin_density
 _atom_site_pbe_cm5_charge
 _atom_site_pbe_ddec_charge
 _atom_site_pbe_ddec_spin_density
 _atom_site_pbe_ddec_sum_bond_order
 _atom_site_pbe_magmom
Zn  Zn0  1  0.41880360  0.55190682  0.93027892  1  1.176116  0  0.732505  0.582151  0  2.525131  0
Zn  Zn1  1  0.41886358  0.55197629  0.06956514  1  1.176117  0  0.732675  0.581969  0  2.526412  0
Zn  Zn2  1  0.93104322  0.06805807  0.43041535  1  1.174092  0  0.730414  0.583455  0  2.511264  0
Zn  Zn3  1  0.93109693  0.06809119  0.56976020  1  1.174219  0  0.730617  0.583989  0  2.510553  0
Zn  Zn4  1  0.57012457  0.41539530  0.07103189  1  1.187142  0  0.742656  0.609949  0  2.43067  0
Zn  Zn5  1  0.57009732  0.41535224  0.92883908  1  1.187691  0  0.742781  0.610453  0  2.429972  0
Zn  Zn6  1  0.07439809  0.92391720  0.57039733  1  1.188546  0  0.744998  0.606678  0  2.450126  0
Zn  Zn7  1  0.07433797  0.92392261  0.42966362  1  1.187817  0  0.745077  0.607052  0  2.449951  0
H  H8  1  0.71453294  0.90570067  0.05470295  1  0.022909  0  0.089644  0.086342  0  0.98181  0
H  H9  1  0.62924206  0.05659987  0.90625846  1  0.013025  0  0.085408  0.07728  0  0.994672  0
H  H10  1  0.14645753  0.56983819  0.59372551  1  0.01583  0  0.086044  0.078084  0  0.99345  0
H  H11  1  0.14568103  0.56955190  0.40627410  1  0.011445  0  0.086342  0.078308  0  0.993418  0
H  H12  1  0.57377235  0.75956352  0.25706120  1  0.096818  0  0.099139  0.109124  0  1.040534  0
H  H13  1  0.57369615  0.75952092  0.74284748  1  0.099587  0  0.099149  0.108915  0  1.040891  0
H  H14  1  0.02574619  0.19530345  0.80740439  1  0.138608  0  0.098721  0.11105  0  1.05485  0
H  H15  1  0.02594191  0.19594054  0.19289655  1  0.11119  0  0.099007  0.11158  0  1.054579  0
H  H16  1  0.12019419  0.28138807  0.88342728  1  0.037698  0  0.100599  0.100881  0  0.998257  0
H  H17  1  0.12031837  0.28182696  0.11677919  1  0.033138  0  0.10052  0.100515  0  0.999403  0
H  H18  1  0.67141065  0.85226711  0.32862939  1  0.061263  0  0.098508  0.096647  0  1.005855  0
H  H19  1  0.71451627  0.90582178  0.94518850  1  0.02275  0  0.089847  0.086473  0  0.981322  0
H  H20  1  0.67137799  0.85228536  0.67135267  1  0.060871  0  0.098597  0.096761  0  1.005488  0
H  H21  1  0.33237553  0.12581015  0.85085188  1  0.029827  0  0.097209  0.097245  0  1.00748  0
H  H22  1  0.33247694  0.12622161  0.14943120  1  0.054059  0  0.097  0.096629  0  1.007518  0
H  H23  1  0.79046278  0.62010909  0.37590681  1  0.036098  0  0.098102  0.099278  0  1.002073  0
H  H24  1  0.79052190  0.62018791  0.62411073  1  0.036594  0  0.098165  0.099249  0  1.002068  0
H  H25  1  0.69525009  0.52827472  0.30238960  1  0.06902  0  0.097534  0.095537  0  1.006613  0
H  H26  1  0.69527026  0.52830075  0.69754882  1  0.069328  0  0.097523  0.095495  0  1.006538  0
H  H27  1  0.23790050  0.03902930  0.77648389  1  0.048586  0  0.096914  0.093592  0  1.013814  0
H  H28  1  0.23807096  0.03962038  0.22388716  1  0.031867  0  0.096561  0.093299  0  1.013837  0
H  H29  1  0.06863744  0.64532095  0.09379209  1  0.052111  0  0.097623  0.096321  0  1.00606  0
H  H30  1  0.23258001  0.41979421  0.55471637  1  0.01116  0  0.090023  0.086535  0  0.981204  0
H  H31  1  0.06861644  0.64550377  0.90608503  1  0.052071  0  0.097691  0.096193  0  1.005413  0
H  H32  1  0.57719653  0.15364014  0.59383289  1  0.051225  0  0.096655  0.095246  0  1.006238  0
H  H33  1  0.57708692  0.15264719  0.40614210  1  0.049805  0  0.096401  0.094978  0  1.007029  0
H  H34  1  0.90258135  0.63158422  0.09381756  1  0.055184  0  0.098231  0.097923  0  1.004779  0
H  H35  1  0.90256401  0.63175776  0.90604302  1  0.051906  0  0.09842  0.097906  0  1.005064  0
H  H36  1  0.41095674  0.13660067  0.59386042  1  0.050315  0  0.098098  0.098052  0  1.004961  0
H  H37  1  0.41086710  0.13560684  0.40609997  1  0.047438  0  0.097881  0.097559  0  1.005899  0
H  H38  1  0.74737591  0.56947874  0.90554045  1  0.101107  0  0.11408  0.098968  0  1.016681  0
H  H39  1  0.74743783  0.56938617  0.09427675  1  0.101748  0  0.114347  0.099257  0  1.016392  0
H  H40  1  0.25467828  0.07551017  0.40561773  1  0.10111  0  0.115327  0.101417  0  1.009134  0
H  H41  1  0.23270837  0.42001135  0.44546547  1  0.012347  0  0.089917  0.086458  0  0.981176  0
H  H42  1  0.25486112  0.07549028  0.59441747  1  0.102323  0  0.115281  0.10123  0  1.009192  0
H  H43  1  0.55625234  0.74236277  0.09417775  1  0.102619  0  0.111594  0.09734  0  1.02504  0
H  H44  1  0.55619852  0.74241872  0.90567220  1  0.100061  0  0.111413  0.097007  0  1.025939  0
H  H45  1  0.07240479  0.25589613  0.59433775  1  0.097311  0  0.113064  0.099268  0  1.017319  0
H  H46  1  0.07246689  0.25570016  0.40578011  1  0.10109  0  0.112942  0.099065  0  1.017619  0
H  H47  1  0.21749092  0.61812527  0.90562952  1  0.098277  0  0.116036  0.102492  0  1.007191  0
H  H48  1  0.21764032  0.61825698  0.09421692  1  0.099765  0  0.116143  0.102311  0  1.006822  0
H  H49  1  0.72882761  0.13250512  0.40578463  1  0.070307  0  0.115356  0.101108  0  1.007046  0
H  H50  1  0.72876465  0.13253573  0.59433530  1  0.068693  0  0.11564  0.101798  0  1.00655  0
H  H51  1  0.62285828  0.21214817  0.09407423  1  0.094071  0  0.113974  0.100509  0  1.00708  0
H  H52  1  0.73326095  0.06448800  0.05521334  1  -0.015507  0  0.09035  0.087334  0  0.981063  0
H  H53  1  0.62276309  0.21209318  0.90589043  1  0.093869  0  0.114091  0.100566  0  1.006944  0
H  H54  1  0.13334813  0.72336701  0.59413630  1  0.046585  0  0.114713  0.10169  0  1.00756  0
H  H55  1  0.13341400  0.72338670  0.40589692  1  0.046428  0  0.11491  0.102036  0  1.007624  0
H  H56  1  0.43233358  0.22402853  0.91088386  1  0.093694  0  0.114432  0.099014  0  1.023713  0
H  H57  1  0.43233483  0.22417854  0.08928247  1  0.096141  0  0.114254  0.098631  0  1.024106  0
H  H58  1  0.93050991  0.73902325  0.40268554  1  0.074615  0  0.114273  0.099197  0  1.013787  0
H  H59  1  0.93049123  0.73904502  0.59731065  1  0.074156  0  0.114338  0.099459  0  1.013694  0
H  H60  1  0.23397360  0.40389527  0.08469134  1  0.07143  0  0.117457  0.104466  0  1.004937  0
H  H61  1  0.23387820  0.40364773  0.91526635  1  0.071579  0  0.117331  0.104235  0  1.004507  0
H  H62  1  0.74368676  0.93022910  0.59020850  1  0.089366  0  0.117904  0.105221  0  1.008436  0
H  H63  1  0.73309080  0.06457895  0.94460128  1  -0.013131  0  0.09055  0.087604  0  0.980648  0
H  H64  1  0.74361648  0.93011440  0.40985211  1  0.090113  0  0.11776  0.105099  0  1.00834  0
H  H65  1  0.61148982  0.89977705  0.09370681  1  0.042764  0  0.087555  0.082415  0  0.991197  0
H  H66  1  0.61145382  0.89981016  0.90616956  1  0.042369  0  0.087364  0.082077  0  0.991477  0
H  H67  1  0.12953657  0.41309054  0.59381299  1  0.04248  0  0.087732  0.082364  0  0.991448  0
H  H68  1  0.12973157  0.41287374  0.40622452  1  0.043363  0  0.087585  0.082454  0  0.991563  0
H  H69  1  0.38318187  0.64139821  0.84086072  1  0.021379  0  0.087538  0.011745  0  1.001853  0
H  H70  1  0.38323349  0.64148194  0.15903303  1  0.020211  0  0.08735  0.011318  0  1.001641  0
H  H71  1  0.90605290  0.16437131  0.34135357  1  0.01253  0  0.087366  0.010904  0  1.004396  0
H  H72  1  0.90603268  0.16398707  0.65883916  1  0.01542  0  0.087514  0.011024  0  1.005378  0
H  H73  1  0.46144564  0.89036039  0.03821927  1  0.024408  0  0.08791  0.084865  0  0.985903  0
H  H74  1  0.24996657  0.57854846  0.55498764  1  0.000948  0  0.090511  0.087399  0  0.980221  0
H  H75  1  0.46147066  0.89047089  0.96163047  1  0.037759  0  0.087782  0.084638  0  0.985734  0
H  H76  1  0.97909490  0.40191352  0.53822027  1  0.022656  0  0.08684  0.083182  0  0.98731  0
H  H77  1  0.97926142  0.40215354  0.46161986  1  0.017597  0  0.086869  0.083066  0  0.987371  0
H  H78  1  0.48073901  0.04922083  0.03839098  1  -0.00154  0  0.084496  0.077117  0  0.993011  0
H  H79  1  0.48061402  0.04932723  0.96170682  1  -0.000784  0  0.084621  0.077106  0  0.993546  0
H  H80  1  0.99717831  0.56074093  0.53856648  1  0.011963  0  0.084067  0.07615  0  0.994181  0
H  H81  1  0.99687099  0.56095460  0.46186459  1  0.006864  0  0.084084  0.076252  0  0.993721  0
H  H82  1  0.67022853  0.48295299  0.20217484  1  0.080805  0  0.120619  0.110625  0  0.993882  0
H  H83  1  0.67006189  0.48279825  0.79765567  1  0.077403  0  0.120652  0.110689  0  0.993235  0
H  H84  1  0.16125830  0.96572402  0.70586049  1  0.084883  0  0.121043  0.110358  0  0.998522  0
H  H85  1  0.24956872  0.57871429  0.44468089  1  0.003955  0  0.090374  0.087024  0  0.980139  0
H  H86  1  0.16127398  0.96613213  0.29431833  1  0.091232  0  0.121632  0.111381  0  0.998409  0
H  H87  1  0.62955675  0.05658909  0.09368080  1  0.003668  0  0.08547  0.077951  0  0.994156  0
C  C88  1  0.50500728  0.60075354  0.80962622  1  0.404354  0  0.072319  0.033699  0  4.002253  0
C  C89  1  0.29314333  0.37079564  0.91760564  1  0.438385  0  0.011033  -0.0428  0  3.952806  0
C  C90  1  0.13133066  0.73808777  0.45214471  1  0.380782  0  -0.00159  -0.071668  0  4.019703  0
C  C91  1  0.43662795  0.65882237  0.80581009  1  0.92277  0  0.087836  0.245245  0  4.059309  0
C  C92  1  0.43665784  0.65883859  0.19411655  1  0.923972  0  0.088469  0.246533  0  4.058535  0
C  C93  1  0.94788764  0.16516027  0.30032894  1  0.941461  0  0.087613  0.24588  0  4.057898  0
C  C94  1  0.94774670  0.16465093  0.69992163  1  0.939797  0  0.087686  0.245656  0  4.058111  0
C  C95  1  0.80073188  0.89412488  0.58843900  1  0.381697  0  0.008132  -0.046559  0  3.957437  0
C  C96  1  0.80068762  0.89404146  0.41160745  1  0.381873  0  0.0082  -0.046098  0  3.957346  0
C  C97  1  0.17691751  0.62870981  0.99992542  1  0.03069  0  -0.038118  -0.03979  0  4.097053  0
C  C98  1  0.68719760  0.14103342  0.50004348  1  0.015444  0  -0.037983  -0.041928  0  4.090335  0
C  C99  1  0.62361864  0.16913624  0.99998548  1  0.047889  0  -0.033322  -0.045079  0  4.020896  0
C  C100  1  0.13702979  0.68122630  0.50001525  1  0.030067  0  -0.033994  -0.044258  0  4.024436  0
C  C101  1  0.30187712  0.28115781  0.90311850  1  0.020274  0  -0.034932  -0.041617  0  4.067102  0
C  C102  1  0.30192134  0.28139141  0.09698357  1  0.028852  0  -0.034867  -0.040999  0  4.068512  0
C  C103  1  0.80612839  0.80523819  0.39329912  1  0.020321  0  -0.036255  -0.042988  0  4.073483  0
C  C104  1  0.50506539  0.60079915  0.19026650  1  0.403416  0  0.072005  0.032969  0  4.002964  0
C  C105  1  0.80615990  0.80530986  0.60673572  1  0.020074  0  -0.0364  -0.043092  0  4.073637  0
C  C106  1  0.64789824  0.92770026  0.05418753  1  -0.039083  0  -0.158797  -0.183329  0  3.859292  0
C  C107  1  0.64784726  0.92774797  0.94570188  1  -0.039142  0  -0.158739  -0.183171  0  3.858815  0
C  C108  1  0.16563891  0.44115969  0.55423098  1  -0.027254  0  -0.159367  -0.184456  0  3.858719  0
C  C109  1  0.16565762  0.44114463  0.44582384  1  -0.029982  0  -0.159357  -0.184745  0  3.858916  0
C  C110  1  0.66044223  0.03314074  0.05428544  1  0.005317  0  -0.159373  -0.184967  0  3.861253  0
C  C111  1  0.66029025  0.03317841  0.94560908  1  -0.008423  0  -0.159479  -0.18437  0  3.860742  0
C  C112  1  0.17731018  0.54658139  0.55426788  1  -0.020301  0  -0.158595  -0.181947  0  3.859089  0
C  C113  1  0.17697664  0.54654631  0.44565042  1  -0.017553  0  -0.158865  -0.182  0  3.859099  0
C  C114  1  0.50043224  0.91978583  0.99994957  1  -0.036035  0  -0.161275  -0.185103  0  3.862855  0
C  C115  1  0.01015780  0.10081068  0.30425336  1  0.369868  0  0.072485  0.033594  0  3.991669  0
C  C116  1  0.01786157  0.43178595  0.49998707  1  -0.042031  0  -0.1614  -0.183714  0  3.867623  0
C  C117  1  0.59407481  0.88772934  0.99994195  1  0.042778  0  -0.009558  0.129869  0  3.828526  0
C  C118  1  0.11199988  0.40072933  0.50001822  1  0.049424  0  -0.008838  0.13131  0  3.827062  0
C  C119  1  0.61600754  0.06748741  0.99997757  1  0.067881  0  -0.011978  0.12702  0  3.840109  0
C  C120  1  0.13218826  0.58009917  0.50001322  1  0.09829  0  -0.011826  0.125507  0  3.842878  0
C  C121  1  0.61208253  0.51550144  0.19319609  1  0.358056  0  0.007774  -0.06921  0  3.974877  0
C  C122  1  0.61194619  0.51537737  0.80665770  1  0.360389  0  0.008066  -0.068916  0  3.97463  0
C  C123  1  0.10899732  0.00599675  0.69694690  1  0.390636  0  0.007905  -0.07174  0  3.980261  0
C  C124  1  0.10901355  0.00639081  0.30324490  1  0.373457  0  0.006505  -0.074451  0  3.981952  0
C  C125  1  0.51314891  0.02440787  0.00001064  1  -0.020446  0  -0.160222  -0.178212  0  3.874544  0
C  C126  1  0.01009815  0.10037983  0.69597438  1  0.370127  0  0.071525  0.032701  0  3.991366  0
C  C127  1  0.02958698  0.53612914  0.50012152  1  -0.022504  0  -0.161184  -0.179206  0  3.880667  0
C  C128  1  0.62195370  0.72893588  0.28250517  1  -0.023106  0  -0.093273  -0.12316  0  3.982534  0
C  C129  1  0.62189742  0.72891859  0.71742072  1  -0.025191  0  -0.093356  -0.122947  0  3.982909  0
C  C130  1  0.09260765  0.17923822  0.81732739  1  -0.041789  0  -0.094388  -0.126212  0  3.973171  0
C  C131  1  0.09278258  0.17983276  0.18296446  1  0.023404  0  -0.095199  -0.127334  0  3.973913  0
C  C132  1  0.14675939  0.22823219  0.86004204  1  -0.050644  0  -0.094761  -0.131104  0  3.989639  0
C  C133  1  0.14689543  0.22870821  0.14020302  1  -0.038716  0  -0.094407  -0.130478  0  3.991218  0
C  C134  1  0.67623592  0.78069443  0.32382437  1  -0.033712  0  -0.094131  -0.127578  0  3.992324  0
C  C135  1  0.67620808  0.78071121  0.67614301  1  -0.034252  0  -0.093962  -0.127572  0  3.991967  0
C  C136  1  0.23629590  0.21453262  0.87102658  1  -0.016976  0  -0.008059  0.089436  0  4.045624  0
C  C137  1  0.39448682  0.27939621  0.91476045  1  0.386039  0  0.007956  -0.046166  0  3.955653  0
C  C138  1  0.23638861  0.21491105  0.12918517  1  0.019952  0  -0.008539  0.088186  0  4.046321  0
C  C139  1  0.74067595  0.74461283  0.35710492  1  0.003001  0  -0.007593  0.088571  0  4.042542  0
C  C140  1  0.74068620  0.74466478  0.64289219  1  0.002881  0  -0.007973  0.088503  0  4.042759  0
C  C141  1  0.26461914  0.14100458  0.84235992  1  0.019742  0  -0.098138  -0.138036  0  4.010141  0
C  C142  1  0.26473365  0.14144320  0.15791472  1  -0.039582  0  -0.097592  -0.136461  0  4.0109  0
C  C143  1  0.74416609  0.65180502  0.34929789  1  -0.017211  0  -0.09802  -0.138992  0  4.005885  0
C  C144  1  0.74418188  0.65185284  0.65068963  1  -0.018605  0  -0.097848  -0.138878  0  4.005793  0
C  C145  1  0.69027074  0.59981940  0.30760604  1  -0.100472  0  -0.095306  -0.132667  0  4.009186  0
C  C146  1  0.69026486  0.59983817  0.69234268  1  -0.099945  0  -0.09545  -0.132765  0  4.009034  0
C  C147  1  0.21077634  0.09179731  0.79987605  1  -0.109279  0  -0.096188  -0.132126  0  4.013293  0
C  C148  1  0.39450056  0.27954085  0.08531830  1  0.38036  0  0.008025  -0.046075  0  3.956812  0
C  C149  1  0.21092976  0.09233644  0.20044196  1  -0.089807  0  -0.09571  -0.131233  0  4.013071  0
C  C150  1  0.62977367  0.63787717  0.27204307  1  -0.004162  0  -0.016284  0.072234  0  4.045328  0
C  C151  1  0.62973230  0.63786347  0.72788127  1  -0.005326  0  -0.016222  0.072458  0  4.045443  0
C  C152  1  0.12561269  0.11325746  0.78384128  1  0.050187  0  -0.017332  0.07005  0  4.048232  0
C  C153  1  0.12579727  0.11386846  0.21647601  1  -0.000156  0  -0.017657  0.06943  0  4.047238  0
C  C154  1  0.03276841  0.64237612  0.05220424  1  -0.063373  0  -0.09825  -0.134095  0  4.012007  0
C  C155  1  0.03275623  0.64247834  0.94766836  1  -0.030423  0  -0.09776  -0.133059  0  4.01014  0
C  C156  1  0.54132236  0.14966922  0.55220850  1  -0.032644  0  -0.098527  -0.134593  0  4.008395  0
C  C157  1  0.54127203  0.14915720  0.44776464  1  -0.027443  0  -0.098072  -0.13432  0  4.008829  0
C  C158  1  0.93832494  0.63477943  0.05220373  1  -0.032196  0  -0.096883  -0.133359  0  4.006183  0
C  C159  1  0.89563296  0.79621341  0.40874359  1  0.433402  0  0.00776  -0.046339  0  3.958768  0
C  C160  1  0.93831418  0.63487669  0.94766002  1  -0.030212  0  -0.097923  -0.134255  0  4.006602  0
C  C161  1  0.44662549  0.14017208  0.55220522  1  -0.021484  0  -0.097858  -0.136095  0  4.00459  0
C  C162  1  0.44657966  0.13965140  0.44776048  1  -0.018038  0  -0.097543  -0.134979  0  4.005158  0
C  C163  1  0.88803928  0.62502468  0.99992699  1  0.030842  0  -0.012952  0.080794  0  4.048805  0
C  C164  1  0.39612522  0.12969378  0.49998695  1  -0.028734  0  -0.012479  0.08253  0  4.043306  0
C  C165  1  0.73319037  0.56168689  0.95181344  1  0.390323  0  0.007939  -0.044536  0  3.958513  0
C  C166  1  0.73322289  0.56161258  0.04800176  1  0.370713  0  0.007946  -0.044931  0  3.958959  0
C  C167  1  0.24043165  0.06809552  0.45191291  1  0.395972  0  0.007457  -0.045799  0  3.956683  0
C  C168  1  0.24050859  0.06809784  0.54813071  1  0.395527  0  0.007467  -0.045749  0  3.956327  0
C  C169  1  0.08179200  0.64095839  0.99993816  1  -0.034399  0  -0.016813  0.074315  0  4.068315  0
C  C170  1  0.89564841  0.79626605  0.59128646  1  0.434311  0  0.00778  -0.046513  0  3.958407  0
C  C171  1  0.59083299  0.14950141  0.50000265  1  -0.085361  0  -0.017288  0.076307  0  4.058334  0
C  C172  1  0.54946856  0.72752979  0.04792835  1  0.382733  0  -0.000562  -0.061436  0  3.977081  0
C  C173  1  0.54944173  0.72756074  0.95191897  1  0.382746  0  -4.1e-05  -0.060583  0  3.978264  0
C  C174  1  0.06545716  0.24104976  0.54809051  1  0.383379  0  -0.000681  -0.06225  0  3.979217  0
C  C175  1  0.06551406  0.24093653  0.45203817  1  0.357406  0  -3.8e-05  -0.061546  0  3.978924  0
C  C176  1  0.58296107  0.58715274  0.77695202  1  0.025456  0  -0.013236  -0.026723  0  4.000038  0
C  C177  1  0.58302813  0.58719197  0.22294640  1  0.024613  0  -0.012723  -0.025818  0  3.999652  0
C  C178  1  0.08083676  0.07461246  0.26948902  1  0.03641  0  -0.011293  -0.021445  0  3.991638  0
C  C179  1  0.08070046  0.07405820  0.73077949  1  0.023169  0  -0.011355  -0.021427  0  3.991485  0
C  C180  1  0.78935274  0.59157585  0.99991260  1  0.035958  0  -0.035232  -0.04073  0  4.070117  0
C  C181  1  0.29320025  0.37098239  0.08237641  1  0.432517  0  0.010929  -0.04344  0  3.95433  0
C  C182  1  0.29720031  0.09679187  0.50000910  1  0.009598  0  -0.034938  -0.039814  0  4.064277  0
C  C183  1  0.57265649  0.78526291  0.99993118  1  -0.019319  0  -0.031776  -0.045312  0  3.996103  0
C  C184  1  0.09026779  0.29828487  0.50004399  1  -0.010764  0  -0.032927  -0.04801  0  3.997329  0
C  C185  1  0.23174741  0.61535039  0.95191563  1  0.354736  0  0.003798  -0.060262  0  3.999127  0
C  C186  1  0.23180802  0.61539292  0.04792545  1  0.35763  0  0.00335  -0.060343  0  3.999659  0
C  C187  1  0.74316500  0.13015370  0.45208641  1  0.42713  0  0.004285  -0.057511  0  3.997459  0
C  C188  1  0.74312706  0.13017061  0.54804210  1  0.427002  0  0.003726  -0.059164  0  3.998213  0
C  C189  1  0.62132439  0.22701362  0.04781546  1  0.332254  0  -0.003148  -0.072433  0  4.020767  0
C  C190  1  0.62128722  0.22698864  0.95214567  1  0.361858  0  -0.003009  -0.072329  0  4.020307  0
C  C191  1  0.13130169  0.73807420  0.54788707  1  0.380826  0  -0.001541  -0.071444  0  4.019166  0
N  N192  1  0.49210013  0.54042291  0.85480160  1  -0.732332  0  -0.248467  -0.190878  0  3.527479  0
N  N193  1  0.65182660  0.51588739  0.02949673  1  -0.880453  0  -0.283205  -0.179615  0  3.632484  0
N  N194  1  0.15821502  0.02434368  0.47043949  1  -0.873663  0  -0.283443  -0.183077  0  3.629378  0
N  N195  1  0.15826004  0.02434673  0.52963645  1  -0.707639  0  -0.28273  -0.181937  0  3.628486  0
N  N196  1  0.51382249  0.64257931  0.02946893  1  -0.872515  0  -0.289215  -0.184337  0  3.631503  0
N  N197  1  0.51379729  0.64259668  0.97035021  1  -0.711493  0  -0.289684  -0.185269  0  3.631843  0
N  N198  1  0.02743373  0.15674827  0.52965439  1  -0.703987  0  -0.288773  -0.183902  0  3.635924  0
N  N199  1  0.02746548  0.15667965  0.47052667  1  -0.866833  0  -0.2882  -0.18273  0  3.63494  0
N  N200  1  0.31197211  0.59575864  0.97004544  1  -0.702856  0  -0.273441  -0.174043  0  3.562158  0
N  N201  1  0.31200778  0.59578683  0.02978806  1  -0.860402  0  -0.273473  -0.174383  0  3.562114  0
N  N202  1  0.82479917  0.11405986  0.47020668  1  -0.878133  0  -0.273535  -0.177297  0  3.55384  0
N  N203  1  0.49220921  0.54055182  0.14504425  1  -0.732384  0  -0.248755  -0.191208  0  3.527445  0
N  N204  1  0.82477759  0.11407094  0.52997310  1  -0.720503  0  -0.273237  -0.176492  0  3.552932  0
N  N205  1  0.61754001  0.31232898  0.02986421  1  -0.874103  0  -0.277651  -0.181109  0  3.551655  0
N  N206  1  0.61751691  0.31231295  0.97007631  1  -0.709195  0  -0.277723  -0.181141  0  3.551416  0
N  N207  1  0.12257199  0.82204604  0.52988276  1  -0.697907  0  -0.279243  -0.178172  0  3.566825  0
N  N208  1  0.12258910  0.82205676  0.47015073  1  -0.863566  0  -0.279618  -0.178981  0  3.567358  0
N  N209  1  0.43682737  0.36190743  0.93318305  1  -0.781768  0  -0.281831  -0.17923  0  3.621748  0
N  N210  1  0.43683641  0.36196759  0.06676011  1  -0.79235  0  -0.281734  -0.178976  0  3.62187  0
N  N211  1  0.93971897  0.87433942  0.43274148  1  -0.783106  0  -0.280045  -0.17876  0  3.611239  0
N  N212  1  0.93974057  0.87438877  0.56729801  1  -0.773389  0  -0.279872  -0.178672  0  3.610743  0
N  N213  1  0.37445152  0.41808290  0.06494422  1  -0.807028  0  -0.283209  -0.176358  0  3.640445  0
N  N214  1  0.00132512  0.05089953  0.35447969  1  -0.678578  0  -0.248014  -0.192627  0  3.52942  0
N  N215  1  0.37441580  0.41799864  0.93493902  1  -0.795339  0  -0.283354  -0.176863  0  3.640315  0
N  N216  1  0.88115574  0.93444695  0.56543185  1  -0.789436  0  -0.285207  -0.181227  0  3.627418  0
N  N217  1  0.88112068  0.93438286  0.43461393  1  -0.800762  0  -0.284952  -0.181281  0  3.626529  0
N  N218  1  0.00141643  0.05067531  0.64566787  1  -0.756863  0  -0.247665  -0.192326  0  3.529119  0
N  N219  1  0.55745740  0.48901177  0.14672835  1  -0.730201  0  -0.244524  -0.137433  0  3.53382  0
N  N220  1  0.55730584  0.48883212  0.85309495  1  -0.729592  0  -0.244971  -0.138022  0  3.533837  0
N  N221  1  0.06125732  0.99336053  0.64663633  1  -0.715714  0  -0.247375  -0.131463  0  3.563398  0
N  N222  1  0.06115193  0.99356504  0.35348721  1  -0.792374  0  -0.246779  -0.13004  0  3.562212  0
N  N223  1  0.65180484  0.51592595  0.97030617  1  -0.722169  0  -0.282805  -0.179915  0  3.632511  0
O  O224  1  0.43116618  0.72019924  0.77124078  1  -1.072475  0  -0.273897  -0.35601  0  2.126275  0
O  O225  1  0.43117125  0.72013641  0.22872964  1  -1.072555  0  -0.274241  -0.356553  0  2.125949  0
O  O226  1  0.93607361  0.21631928  0.26035974  1  -1.084961  0  -0.272142  -0.354749  0  2.136896  0
O  O227  1  0.93576742  0.21561767  0.73995272  1  -1.083686  0  -0.272132  -0.354462  0  2.13726  0
