# generated using pymatgen
data_NiH20C20(NO4)2
_symmetry_space_group_name_H-M   'P 1'
_cell_length_a   8.10529314
_cell_length_b   16.93064685
_cell_length_c   16.93061817
_cell_angle_alpha   119.98157135
_cell_angle_beta   90.00176187
_cell_angle_gamma   90.00059684
_symmetry_Int_Tables_number   1
_chemical_formula_structural   NiH20C20(NO4)2
_chemical_formula_sum   'Ni3 H60 C60 N6 O24'
_cell_volume   2012.45576270
_cell_formula_units_Z   3
loop_
 _symmetry_equiv_pos_site_id
 _symmetry_equiv_pos_as_xyz
  1  'x, y, z'
loop_
 _atom_site_type_symbol
 _atom_site_label
 _atom_site_symmetry_multiplicity
 _atom_site_fract_x
 _atom_site_fract_y
 _atom_site_fract_z
 _atom_site_occupancy
 _atom_site_pbe_bader_charge
 _atom_site_pbe_bader_spin_density
 _atom_site_pbe_cm5_charge
 _atom_site_pbe_ddec_charge
 _atom_site_pbe_ddec_spin_density
 _atom_site_pbe_ddec_sum_bond_order
 _atom_site_pbe_magmom
Ni  Ni0  1  0.66646889  0.00004799  0.51386228  1  1.362113  0  0.772767  1.049178  0  2.793682  0
Ni  Ni1  1  0.33355283  0.51383604  0.00004195  1  1.362293  0  0.772915  1.049298  0  2.7931  0
Ni  Ni2  1  0.99997617  0.48610651  0.48610214  1  1.360499  0  0.772964  1.049807  0  2.793289  0
H  H3  1  0.38925563  0.31725667  0.77180095  1  0.162107  0  0.114626  0.14364  0  1.026699  0
H  H4  1  0.56404580  0.08815964  0.79383691  1  0.106517  0  0.105823  0.11278  0  0.99436  0
H  H5  1  0.46090854  0.16337178  0.95435574  1  0.039121  0  0.099199  0.099775  0  1.002776  0
H  H6  1  0.95272297  0.03447489  0.43032257  1  0.147896  0  0.130167  0.056612  0  1.046354  0
H  H7  1  0.32636533  0.13809937  0.48294276  1  0.103361  0  0.108894  0.144022  0  1.010495  0
H  H8  1  0.17757722  0.21427135  0.47752134  1  0.099315  0  0.109934  0.128771  0  1.010201  0
H  H9  1  0.16391998  0.09452240  0.39973531  1  0.038259  0  0.106649  0.1153  0  0.999574  0
H  H10  1  0.23707979  0.18971695  0.65106273  1  0.074101  0  0.10699  0.125829  0  1.008608  0
H  H11  1  0.01937339  0.19036328  0.66912660  1  0.086077  0  0.11486  0.135198  0  1.004776  0
H  H12  1  0.10843147  0.27113434  0.64217246  1  0.117429  0  0.115631  0.144573  0  0.984466  0
H  H13  1  0.05628584  0.45443986  0.68280905  1  0.119412  0  0.114322  0.142996  0  1.027004  0
H  H14  1  0.23108956  0.70561907  0.91166136  1  0.073576  0  0.105874  0.112712  0  0.993859  0
H  H15  1  0.12774059  0.79077209  0.83629727  1  0.037526  0  0.099071  0.09976  0  1.003514  0
H  H16  1  0.61975353  0.39585472  0.96564043  1  0.139156  0  0.130234  0.056802  0  1.046134  0
H  H17  1  0.99307207  0.34464969  0.86187906  1  0.103863  0  0.108991  0.144155  0  1.010146  0
H  H18  1  0.84427114  0.26308251  0.78575404  1  0.093499  0  0.109726  0.128572  0  1.010393  0
H  H19  1  0.83057996  0.30509918  0.90553017  1  0.053288  0  0.106666  0.1153  0  0.999235  0
H  H20  1  0.90351257  0.46112465  0.81000528  1  0.069289  0  0.1072  0.125902  0  1.008786  0
H  H21  1  0.68573018  0.47821810  0.80918920  1  0.08562  0  0.114632  0.134903  0  1.00593  0
H  H22  1  0.77522026  0.37058362  0.72867356  1  0.11586  0  0.115528  0.144662  0  0.984346  0
H  H23  1  0.72252506  0.22823580  0.54547155  1  0.169517  0  0.114555  0.143377  0  1.026679  0
H  H24  1  0.89757226  0.20618681  0.29438622  1  0.070674  0  0.105924  0.112965  0  0.994121  0
H  H25  1  0.79389698  0.04577704  0.20910075  1  0.043443  0  0.099005  0.099641  0  1.003074  0
H  H26  1  0.28642006  0.56968315  0.60388833  1  0.142238  0  0.130151  0.056405  0  1.046474  0
H  H27  1  0.65961646  0.51721005  0.65530060  1  0.100009  0  0.108873  0.143861  0  1.010299  0
H  H28  1  0.51083545  0.52273126  0.73691960  1  0.080056  0  0.109809  0.128637  0  1.010251  0
H  H29  1  0.49712552  0.60040208  0.69478343  1  0.072537  0  0.106577  0.115152  0  0.999145  0
H  H30  1  0.57007885  0.34889567  0.53922461  1  0.073259  0  0.107158  0.125578  0  1.008998  0
H  H31  1  0.35232044  0.33096567  0.52187356  1  0.109309  0  0.114595  0.134729  0  1.005923  0
H  H32  1  0.44130365  0.35821417  0.62966650  1  0.099608  0  0.115548  0.144442  0  0.985013  0
H  H33  1  0.61077587  0.77178342  0.31726546  1  0.161637  0  0.114496  0.143522  0  1.026729  0
H  H34  1  0.43586502  0.79381878  0.08818807  1  0.106868  0  0.105788  0.112702  0  0.99433  0
H  H35  1  0.53894029  0.95435001  0.16340127  1  0.039392  0  0.099206  0.099905  0  1.003106  0
H  H36  1  0.04727330  0.43032632  0.03445924  1  0.148082  0  0.130214  0.056656  0  1.046243  0
H  H37  1  0.67365580  0.48294211  0.13805766  1  0.102571  0  0.108851  0.143914  0  1.010657  0
H  H38  1  0.82240484  0.47753881  0.21426285  1  0.099646  0  0.109895  0.128757  0  1.010208  0
H  H39  1  0.83610833  0.39974581  0.09451421  1  0.03802  0  0.106681  0.115273  0  0.999611  0
H  H40  1  0.76312175  0.65112672  0.18957848  1  0.075705  0  0.107132  0.126038  0  1.008857  0
H  H41  1  0.98089307  0.66911426  0.19046840  1  0.10339  0  0.114857  0.135255  0  1.005005  0
H  H42  1  0.89130542  0.64216150  0.27112018  1  0.117549  0  0.115567  0.144456  0  0.984814  0
H  H43  1  0.94371677  0.68280733  0.45442973  1  0.11915  0  0.114239  0.142813  0  1.027194  0
H  H44  1  0.76909662  0.91170371  0.70561673  1  0.072997  0  0.10597  0.112868  0  0.993616  0
H  H45  1  0.87246204  0.83633863  0.79077558  1  0.037607  0  0.098898  0.099564  0  1.003469  0
H  H46  1  0.38022981  0.96567582  0.39592697  1  0.138573  0  0.130223  0.056682  0  1.046001  0
H  H47  1  0.00690621  0.86188194  0.34469540  1  0.103574  0  0.108877  0.143974  0  1.010016  0
H  H48  1  0.15572171  0.78580137  0.26312065  1  0.093984  0  0.109766  0.128472  0  1.010424  0
H  H49  1  0.16938369  0.90557721  0.30517336  1  0.051215  0  0.106594  0.115306  0  0.999053  0
H  H50  1  0.09643008  0.80991907  0.46105473  1  0.0692  0  0.107093  0.125953  0  1.008763  0
H  H51  1  0.31419340  0.80922000  0.47829182  1  0.086286  0  0.114762  0.13513  0  1.0057  0
H  H52  1  0.22493996  0.72866515  0.37059473  1  0.115816  0  0.115541  0.14469  0  0.98425  0
H  H53  1  0.27742331  0.54545470  0.22823878  1  0.170021  0  0.114545  0.143403  0  1.026859  0
H  H54  1  0.10226261  0.29437723  0.20616597  1  0.088491  0  0.10601  0.113037  0  0.994593  0
H  H55  1  0.20591558  0.20908755  0.04576330  1  0.043069  0  0.098868  0.099293  0  1.003032  0
H  H56  1  0.71364942  0.60396028  0.56970854  1  0.141923  0  0.130224  0.056693  0  1.046454  0
H  H57  1  0.34047025  0.65541511  0.51729983  1  0.100084  0  0.108733  0.143904  0  1.010032  0
H  H58  1  0.48926959  0.73701637  0.52278566  1  0.080104  0  0.109857  0.128751  0  1.010344  0
H  H59  1  0.50302046  0.69487779  0.60045751  1  0.072287  0  0.10677  0.115276  0  0.999451  0
H  H60  1  0.42981371  0.53936957  0.34898215  1  0.073139  0  0.107144  0.125816  0  1.00884  0
H  H61  1  0.64752873  0.52188502  0.33099159  1  0.109585  0  0.114725  0.134913  0  1.005662  0
H  H62  1  0.55877186  0.62972566  0.35824156  1  0.099063  0  0.115689  0.144615  0  0.985417  0
C  C63  1  0.48605404  0.19798130  0.77280048  1  -0.035205  0  -0.014552  -0.012507  0  3.981177  0
C  C64  1  0.40213139  0.28076692  0.80926185  1  -0.044314  0  -0.087697  -0.206751  0  3.919136  0
C  C65  1  0.36150068  0.28035563  0.95249570  1  -0.079323  0  -0.014357  -0.013785  0  3.969613  0
C  C66  1  0.50100306  0.15370385  0.82380989  1  -0.07783  0  -0.08686  -0.099803  0  3.982251  0
C  C67  1  0.33332805  0.32149952  0.89747830  1  0.659167  0  0.07929  0.26635  0  4.098851  0
C  C68  1  0.44129751  0.19560612  0.91308415  1  -5.1e-05  0  -0.09722  -0.133905  0  4.021968  0
C  C69  1  0.56954765  0.16214019  0.68095292  1  1.595832  0  0.209731  0.551972  0  4.216212  0
C  C70  1  0.96685376  0.07803407  0.50447729  1  1.355694  0  0.18212  0.276862  0  4.056381  0
C  C71  1  0.19668165  0.14642846  0.46957885  1  0.242149  0  -0.129998  -0.286322  0  3.876949  0
C  C72  1  0.11546955  0.20124234  0.63026420  1  0.217283  0  -0.126495  -0.267359  0  3.82689  0
C  C73  1  0.15299415  0.57474418  0.80198335  1  0.001364  0  -0.014214  -0.012108  0  3.980052  0
C  C74  1  0.06901113  0.52836869  0.71922004  1  -0.009937  0  -0.086898  -0.205326  0  3.919014  0
C  C75  1  0.02814043  0.67191867  0.71948650  1  -0.095549  0  -0.014304  -0.013381  0  3.970778  0
C  C76  1  0.16793807  0.67000267  0.84615535  1  -0.048986  0  -0.087224  -0.100258  0  3.982164  0
C  C77  1  0.00001759  0.57577891  0.67843226  1  0.632422  0  0.07834  0.265356  0  4.099293  0
C  C78  1  0.10809777  0.71730201  0.80418311  1  -0.03249  0  -0.096634  -0.133502  0  4.023512  0
C  C79  1  0.23655451  0.51880050  0.83790454  1  1.60201  0  0.209343  0.551931  0  4.216737  0
C  C80  1  0.63378832  0.42638557  0.92200579  1  1.338993  0  0.181873  0.276334  0  4.057361  0
C  C81  1  0.86338116  0.32297987  0.85356158  1  0.231929  0  -0.129834  -0.286208  0  3.876412  0
C  C82  1  0.78204455  0.42866843  0.79849298  1  0.22968  0  -0.126442  -0.267079  0  3.827202  0
C  C83  1  0.81949147  0.22722076  0.42521425  1  -0.106706  0  -0.014349  -0.012025  0  3.980789  0
C  C84  1  0.73537048  0.19080080  0.47154442  1  -0.013164  0  -0.087592  -0.206551  0  3.918799  0
C  C85  1  0.69444941  0.04763963  0.32793768  1  -0.054612  0  -0.014093  -0.012436  0  3.968892  0
C  C86  1  0.83434830  0.17623900  0.32995302  1  0.040283  0  -0.087135  -0.100275  0  3.982168  0
C  C87  1  0.66638150  0.10263350  0.42408161  1  0.572451  0  0.078609  0.265536  0  4.098146  0
C  C88  1  0.77437566  0.08702146  0.28258997  1  -0.049192  0  -0.096752  -0.133937  0  4.022219  0
C  C89  1  0.90316009  0.31899347  0.48116620  1  1.595995  0  0.209585  0.551925  0  4.216559  0
C  C90  1  0.30038867  0.49555004  0.57348071  1  1.339399  0  0.18255  0.277345  0  4.05677  0
C  C91  1  0.52993047  0.53058327  0.67696856  1  0.230518  0  -0.129792  -0.285694  0  3.875713  0
C  C92  1  0.44848430  0.36984946  0.57150843  1  0.220106  0  -0.126537  -0.26621  0  3.827407  0
C  C93  1  0.51390479  0.77278141  0.19800137  1  -0.035477  0  -0.014323  -0.012411  0  3.981054  0
C  C94  1  0.59785449  0.80924989  0.28078470  1  -0.044375  0  -0.087535  -0.206551  0  3.918568  0
C  C95  1  0.63841698  0.95249764  0.28037724  1  -0.073929  0  -0.014253  -0.013349  0  3.969784  0
C  C96  1  0.49893138  0.82379649  0.15373029  1  -0.078047  0  -0.086818  -0.099366  0  3.981792  0
C  C97  1  0.66662606  0.89748159  0.32152246  1  0.658505  0  0.07913  0.265992  0  4.098448  0
C  C98  1  0.55859783  0.91308565  0.19563534  1  -0.00571  0  -0.097413  -0.134729  0  4.02277  0
C  C99  1  0.43043068  0.68092534  0.16215367  1  1.597154  0  0.209669  0.551563  0  4.217272  0
C  C100  1  0.03315346  0.50447858  0.07802019  1  1.355369  0  0.18198  0.276489  0  4.057057  0
C  C101  1  0.80333188  0.46958862  0.14641014  1  0.242782  0  -0.130094  -0.286421  0  3.877085  0
C  C102  1  0.88459097  0.63027272  0.20122711  1  0.19822  0  -0.126535  -0.267766  0  3.828174  0
C  C103  1  0.84708727  0.80200167  0.57474072  1  0.001203  0  -0.014302  -0.012319  0  3.980304  0
C  C104  1  0.93103174  0.71922206  0.52835561  1  -0.009473  0  -0.0868  -0.204964  0  3.918706  0
C  C105  1  0.97193541  0.71949460  0.67191115  1  -0.050632  0  -0.014393  -0.013799  0  3.970912  0
C  C106  1  0.83221440  0.84618057  0.67000012  1  -0.047896  0  -0.087247  -0.100406  0  3.98209  0
C  C107  1  0.00002346  0.67843316  0.57576349  1  0.630884  0  0.078212  0.26514  0  4.099039  0
C  C108  1  0.89204135  0.80420572  0.71730368  1  -0.031763  0  -0.09629  -0.132914  0  4.022615  0
C  C109  1  0.76355201  0.83791734  0.51879286  1  1.602684  0  0.209295  0.551622  0  4.217441  0
C  C110  1  0.36620435  0.92201197  0.42643474  1  1.340992  0  0.182135  0.276825  0  4.056803  0
C  C111  1  0.13660084  0.85359200  0.32303057  1  0.233885  0  -0.129576  -0.285661  0  3.875833  0
C  C112  1  0.21795924  0.79848356  0.42868140  1  0.231029  0  -0.126599  -0.267508  0  3.827128  0
C  C113  1  0.18043470  0.42518773  0.22721325  1  -0.078393  0  -0.014422  -0.012225  0  3.980759  0
C  C114  1  0.26457460  0.47151680  0.19079288  1  -0.041857  0  -0.087255  -0.206172  0  3.91852  0
C  C115  1  0.30545688  0.32792079  0.04763803  1  -0.056065  0  -0.014168  -0.012761  0  3.969542  0
C  C116  1  0.16552505  0.32993712  0.17623103  1  0.020795  0  -0.087259  -0.100468  0  3.983345  0
C  C117  1  0.33356547  0.42405034  0.10262724  1  0.573257  0  0.078774  0.265542  0  4.099248  0
C  C118  1  0.22548968  0.28257759  0.08701822  1  -0.046899  0  -0.096704  -0.133382  0  4.022146  0
C  C119  1  0.09676221  0.48115052  0.31898947  1  1.597167  0  0.209724  0.552248  0  4.216144  0
C  C120  1  0.69962598  0.57353883  0.49558262  1  1.337917  0  0.182252  0.276722  0  4.057241  0
C  C121  1  0.47016506  0.67706714  0.53064829  1  0.231349  0  -0.129678  -0.285968  0  3.875607  0
C  C122  1  0.55146964  0.57157837  0.36988963  1  0.220871  0  -0.126761  -0.266887  0  3.827453  0
N  N123  1  0.08997984  0.13722793  0.53362707  1  -1.208421  0  -0.267715  0.062466  0  3.719019  0
N  N124  1  0.75671055  0.39619431  0.86268147  1  -1.189789  0  -0.267333  0.062664  0  3.717186  0
N  N125  1  0.42323180  0.46646661  0.60378554  1  -1.192034  0  -0.267289  0.061984  0  3.717502  0
N  N126  1  0.91006182  0.53363572  0.13722082  1  -1.207933  0  -0.267621  0.063215  0  3.719041  0
N  N127  1  0.24327849  0.86269485  0.39624308  1  -1.19258  0  -0.267336  0.062447  0  3.717257  0
N  N128  1  0.57680140  0.60386517  0.46651253  1  -1.19064  0  -0.267472  0.06231  0  3.716967  0
O  O129  1  0.62536844  0.21813703  0.66086425  1  -1.154534  0  -0.301351  -0.51616  0  2.169936  0
O  O130  1  0.23872816  0.39523013  0.92748133  1  -1.038761  0  -0.304852  -0.497233  0  2.388435  0
O  O131  1  0.57178130  0.07342386  0.63440554  1  -1.022412  0  -0.282125  -0.482172  0  2.295293  0
O  O132  1  0.86795385  0.07000946  0.55800713  1  -1.039356  0  -0.257215  -0.3732  0  2.428908  0
O  O133  1  0.29221585  0.44269367  0.78195387  1  -1.160895  0  -0.300994  -0.516278  0  2.171004  0
O  O134  1  0.90537115  0.53203796  0.60473470  1  -1.028419  0  -0.304651  -0.497044  0  2.388347  0
O  O135  1  0.23903917  0.56104065  0.92662728  1  -1.026769  0  -0.282394  -0.48249  0  2.295667  0
O  O136  1  0.53501497  0.48797575  0.93004298  1  -1.036765  0  -0.257243  -0.373042  0  2.430492  0
O  O137  1  0.95909695  0.33902931  0.55719695  1  -1.155942  0  -0.301303  -0.516209  0  2.170271  0
O  O138  1  0.57170805  0.07262689  0.46780324  1  -1.032641  0  -0.304624  -0.496881  0  2.387596  0
O  O139  1  0.90543721  0.36554056  0.43896967  1  -1.020073  0  -0.282089  -0.482037  0  2.295482  0
O  O140  1  0.20159765  0.44198253  0.51191772  1  -1.042207  0  -0.257798  -0.373566  0  2.42897  0
O  O141  1  0.37453978  0.66085327  0.21813303  1  -1.155245  0  -0.301278  -0.51583  0  2.170762  0
O  O142  1  0.76125484  0.92749334  0.39524963  1  -1.037763  0  -0.304796  -0.497134  0  2.388426  0
O  O143  1  0.42828777  0.63437330  0.07343115  1  -1.022496  0  -0.282203  -0.482087  0  2.29543  0
O  O144  1  0.13206139  0.55800279  0.06998386  1  -1.039517  0  -0.25708  -0.373075  0  2.429299  0
O  O145  1  0.70792109  0.78197361  0.44268260  1  -1.161307  0  -0.301  -0.516025  0  2.171906  0
O  O146  1  0.09463884  0.60472494  0.53202116  1  -1.028783  0  -0.304638  -0.49703  0  2.387897  0
O  O147  1  0.76102332  0.92664786  0.56106276  1  -1.026987  0  -0.282289  -0.482291  0  2.295411  0
O  O148  1  0.46502865  0.93003041  0.48800898  1  -1.037638  0  -0.257502  -0.373431  0  2.430302  0
O  O149  1  0.04087983  0.55718432  0.33903392  1  -1.156264  0  -0.301327  -0.516269  0  2.170226  0
O  O150  1  0.42825676  0.46777576  0.07263943  1  -1.032235  0  -0.304899  -0.497056  0  2.388048  0
O  O151  1  0.09444579  0.43893846  0.36552513  1  -1.020824  0  -0.282245  -0.482271  0  2.295487  0
O  O152  1  0.79834200  0.51193921  0.44200155  1  -1.042087  0  -0.257617  -0.373542  0  2.429296  0
