# generated using pymatgen
data_MnH2(C2O)3
_symmetry_space_group_name_H-M   'P 1'
_cell_length_a   7.01422856
_cell_length_b   17.28253899
_cell_length_c   17.28087786
_cell_angle_alpha   118.20519177
_cell_angle_beta   97.81531173
_cell_angle_gamma   97.75498753
_symmetry_Int_Tables_number   1
_chemical_formula_structural   MnH2(C2O)3
_chemical_formula_sum   'Mn6 H12 C36 O18'
_cell_volume   1780.71895935
_cell_formula_units_Z   6
loop_
 _symmetry_equiv_pos_site_id
 _symmetry_equiv_pos_as_xyz
  1  'x, y, z'
loop_
 _atom_site_type_symbol
 _atom_site_label
 _atom_site_symmetry_multiplicity
 _atom_site_fract_x
 _atom_site_fract_y
 _atom_site_fract_z
 _atom_site_occupancy
 _atom_site_pbe_bader_charge
 _atom_site_pbe_bader_spin_density
 _atom_site_pbe_cm5_charge
 _atom_site_pbe_ddec_charge
 _atom_site_pbe_ddec_spin_density
 _atom_site_pbe_ddec_sum_bond_order
 _atom_site_pbe_magmom
Mn  Mn0  1  0.73420555  0.59259310  0.31708899  1  1.482844  4.542081  0.6614  1.032808  4.669964  2.224396  4.412
Mn  Mn1  1  0.14181187  0.72446093  0.40761821  1  1.48339  4.541906  0.66092  1.032622  4.672987  2.224203  4.412
Mn  Mn2  1  0.41724862  0.68304741  0.27574656  1  1.483152  4.542318  0.661098  1.032916  4.676212  2.223605  4.413
Mn  Mn3  1  0.26579208  0.40741034  0.68291139  1  1.482892  4.542066  0.661386  1.032734  4.669943  2.224483  4.412
Mn  Mn4  1  0.85819017  0.27553980  0.59238056  1  1.483412  4.54191  0.660909  1.032635  4.673011  2.224154  4.412
Mn  Mn5  1  0.58274689  0.31695467  0.72425423  1  1.483147  4.542307  0.661113  1.032951  4.676197  2.223578  4.413
H  H6  1  0.00984895  0.60036658  0.03423343  1  0.106745  0.000572  0.105243  0.112856  -0.000238  1.002746  0.0
H  H7  1  0.40935777  0.43352724  0.39970729  1  0.095286  0.000578  0.105271  0.112345  -0.000236  1.002271  0.0
H  H8  1  0.97614684  0.96622966  0.56648789  1  0.09375  0.000581  0.105376  0.112773  -0.000235  1.003061  0.0
H  H9  1  0.99015182  0.39962876  0.96576389  1  0.106718  0.000572  0.105245  0.112861  -0.000238  1.002757  0.0
H  H10  1  0.59063984  0.56647619  0.60029599  1  0.095284  0.000578  0.105249  0.112316  -0.000236  1.002302  0.0
H  H11  1  0.02385663  0.03377107  0.43351443  1  0.09383  0.000581  0.105353  0.112766  -0.000236  1.003089  0.0
H  H12  1  0.75196779  0.50951190  0.89171837  1  0.058347  0.000841  0.103957  0.109266  -0.000413  1.013279  0.0
H  H13  1  0.24203698  0.38197495  0.49046015  1  0.090912  0.000813  0.103595  0.108446  -0.000409  1.014303  0.0
H  H14  1  0.86014487  0.10852567  0.61803417  1  0.051105  0.00086  0.103821  0.108567  -0.000409  1.014063  0.0
H  H15  1  0.24803375  0.49048209  0.10827893  1  0.058298  0.00084  0.103943  0.109274  -0.000413  1.013299  0.0
H  H16  1  0.75794923  0.61802578  0.50953832  1  0.090873  0.000813  0.103569  0.108463  -0.000409  1.014206  0.0
H  H17  1  0.13987044  0.89147574  0.38196914  1  0.051319  0.000859  0.103813  0.108562  -0.000409  1.014091  0.0
C  C18  1  0.98552458  0.64363864  0.19938048  1  1.447259  0.034205  0.233271  0.626611  0.032241  4.1011  0.027
C  C19  1  0.34242360  0.55569010  0.35668521  1  1.474319  0.034017  0.234472  0.627599  0.032152  4.1024  0.027
C  C20  1  0.78689466  0.80096594  0.44448295  1  1.465538  0.034003  0.233642  0.627426  0.032097  4.098433  0.027
C  C21  1  0.01447678  0.35636074  0.80061877  1  1.447542  0.034202  0.233368  0.626809  0.032239  4.101108  0.027
C  C22  1  0.65757421  0.44430794  0.64331206  1  1.474228  0.034019  0.234419  0.627571  0.032152  4.102541  0.027
C  C23  1  0.21310593  0.19903480  0.55551863  1  1.465611  0.034  0.233614  0.627366  0.032096  4.09855  0.027
C  C24  1  0.81869613  0.59582961  0.12006017  1  0.009689  0.0214  -0.041388  -0.199036  0.01628  3.995815  0.013
C  C25  1  0.22313580  0.52409684  0.40429245  1  -0.01898  0.021648  -0.041179  -0.199533  0.01635  3.995263  0.013
C  C26  1  0.69926274  0.88022127  0.47595473  1  -0.011226  0.021504  -0.041172  -0.19918  0.016334  3.994639  0.013
C  C27  1  0.18130244  0.40416708  0.87993766  1  0.010029  0.021402  -0.041441  -0.199245  0.016281  3.995889  0.013
C  C28  1  0.77685870  0.47590322  0.59570558  1  -0.019238  0.021646  -0.041133  -0.199445  0.016349  3.995378  0.013
C  C29  1  0.30074096  0.11978284  0.52405152  1  -0.011756  0.021505  -0.041238  -0.199273  0.016334  3.994764  0.013
C  C30  1  0.62395388  0.56696841  0.12463627  1  0.600389  0.018778  0.101723  0.291839  0.018829  4.026495  0.015
C  C31  1  0.05711807  0.55755482  0.43302379  1  0.596773  0.018785  0.101257  0.292615  0.018815  4.025638  0.015
C  C32  1  0.49964044  0.87547860  0.44255677  1  0.608711  0.018744  0.10156  0.291222  0.018842  4.026573  0.015
C  C33  1  0.37604579  0.43302761  0.87536130  1  0.600225  0.018779  0.101777  0.291971  0.018831  4.026376  0.015
C  C34  1  0.94287433  0.44244389  0.56697118  1  0.597019  0.018788  0.101198  0.29249  0.018817  4.025969  0.015
C  C35  1  0.50036216  0.12452619  0.55744916  1  0.609311  0.018743  0.101567  0.291307  0.018844  4.026476  0.015
C  C36  1  0.85958125  0.57514988  0.03481445  1  -0.09879  0.003173  -0.090345  -0.079371  0.002165  4.040421  0.001
C  C37  1  0.28445457  0.45946328  0.42494289  1  -0.043826  0.003094  -0.090729  -0.078844  0.002146  4.039195  0.001
C  C38  1  0.82524219  0.96552061  0.54053784  1  -0.042334  0.003072  -0.090494  -0.079738  0.002124  4.041021  0.001
C  C39  1  0.14042096  0.42484546  0.96518352  1  -0.099186  0.003173  -0.090338  -0.07929  0.002164  4.040371  0.001
C  C40  1  0.71553993  0.54053679  0.57505746  1  -0.043729  0.003095  -0.090757  -0.078895  0.002147  4.039202  0.001
C  C41  1  0.17476626  0.03448148  0.45946656  1  -0.042004  0.003071  -0.090394  -0.079723  0.002124  4.040879  0.001
C  C42  1  0.71767347  0.52442385  0.95614213  1  0.09859  0.01285  -0.102335  -0.138154  0.009378  4.027497  0.007
C  C43  1  0.19308181  0.43156707  0.47560223  1  0.007495  0.013027  -0.101825  -0.137046  0.009431  4.028697  0.007
C  C44  1  0.76164752  0.04406512  0.56841340  1  0.042309  0.012968  -0.102093  -0.136784  0.009422  4.027842  0.007
C  C45  1  0.28233128  0.47557082  0.04385625  1  0.098847  0.012851  -0.102305  -0.1382  0.009379  4.027514  0.007
C  C46  1  0.80690018  0.56843097  0.52439300  1  0.007633  0.013027  -0.101773  -0.137009  0.009431  4.028478  0.007
C  C47  1  0.23836525  0.95593696  0.43158951  1  0.041996  0.012969  -0.102226  -0.136879  0.009422  4.027914  0.007
C  C48  1  0.52425981  0.48934433  0.95785848  1  -0.05869  0.009171  -0.013961  -0.011957  0.006277  3.97326  0.005
C  C49  1  0.03488588  0.46851574  0.51067971  1  -0.090533  0.00921  -0.013602  -0.012233  0.006254  3.97515  0.005
C  C50  1  0.56641625  0.04217209  0.53143825  1  -0.028458  0.009087  -0.013907  -0.01151  0.006252  3.973294  0.005
C  C51  1  0.47574637  0.51065034  0.04214055  1  -0.110031  0.009274  -0.013897  -0.011838  0.006276  3.973343  0.005
C  C52  1  0.96510009  0.53148163  0.48931484  1  -0.047507  0.00913  -0.013615  -0.01231  0.006256  3.975101  0.005
C  C53  1  0.43359398  0.95783067  0.46856599  1  -0.081817  0.009204  -0.013903  -0.0115  0.006251  3.973539  0.005
O  O54  1  0.15931069  0.66420565  0.18980093  1  -1.18929  0.089498  -0.306102  -0.550968  0.058396  2.28323  0.041
O  O55  1  0.49576293  0.52558631  0.33627395  1  -1.188301  0.089443  -0.306147  -0.550561  0.058448  2.282551  0.041
O  O56  1  0.97029377  0.81058939  0.47471743  1  -1.194463  0.089376  -0.305723  -0.550499  0.058311  2.279851  0.041
O  O57  1  0.84069102  0.33579441  0.81019635  1  -1.189659  0.089502  -0.306182  -0.551088  0.058399  2.283277  0.041
O  O58  1  0.50424010  0.47441645  0.66373046  1  -1.188323  0.089447  -0.306129  -0.550556  0.05845  2.282527  0.041
O  O59  1  0.02970869  0.18940933  0.52528157  1  -1.194474  0.089375  -0.305718  -0.550512  0.05831  2.279888  0.041
O  O60  1  0.95376320  0.66164349  0.27786281  1  -1.211799  0.130474  -0.308876  -0.597643  0.088955  2.491159  0.07
O  O61  1  0.29262689  0.61619803  0.33869901  1  -1.208694  0.130541  -0.309215  -0.598286  0.089096  2.490997  0.07
O  O62  1  0.67660466  0.72247444  0.38394259  1  -1.217625  0.130587  -0.308941  -0.597858  0.089006  2.491508  0.07
O  O63  1  0.04623917  0.33835792  0.72213746  1  -1.211683  0.130469  -0.308876  -0.597647  0.088953  2.49111  0.07
O  O64  1  0.70736992  0.38379799  0.66129492  1  -1.208687  0.130538  -0.309169  -0.598281  0.089096  2.491152  0.07
O  O65  1  0.32338908  0.27752697  0.61605836  1  -1.217743  0.130601  -0.308918  -0.597748  0.089002  2.491446  0.07
O  O66  1  0.56882077  0.58807835  0.20232118  1  -1.219472  0.136793  -0.342769  -0.59685  0.09513  2.528154  0.061
O  O67  1  0.98096141  0.61413574  0.41187284  1  -1.219198  0.136928  -0.343032  -0.597292  0.095041  2.530188  0.061
O  O68  1  0.36684863  0.79771817  0.38612545  1  -1.224323  0.137011  -0.34279  -0.59658  0.095016  2.528367  0.061
O  O69  1  0.43117806  0.41192171  0.79767652  1  -1.219445  0.136794  -0.342744  -0.596812  0.095126  2.528179  0.061
O  O70  1  0.01904054  0.38586769  0.58812663  1  -1.219092  0.136936  -0.342972  -0.597208  0.095038  2.530365  0.061
O  O71  1  0.63315720  0.20228729  0.61387982  1  -1.224442  0.137003  -0.342777  -0.596604  0.095016  2.528322  0.061
