# generated using pymatgen
data_ZnH4C20NCl2O4F5
_symmetry_space_group_name_H-M   'P 1'
_cell_length_a   11.08590418
_cell_length_b   13.11126940
_cell_length_c   11.86553332
_cell_angle_alpha   84.41954354
_cell_angle_beta   86.29948274
_cell_angle_gamma   64.45435520
_symmetry_Int_Tables_number   1
_chemical_formula_structural   ZnH4C20NCl2O4F5
_chemical_formula_sum   'Zn2 H8 C40 N2 Cl4 O8 F10'
_cell_volume   1548.19381047
_cell_formula_units_Z   2
loop_
 _symmetry_equiv_pos_site_id
 _symmetry_equiv_pos_as_xyz
  1  'x, y, z'
loop_
 _atom_site_type_symbol
 _atom_site_label
 _atom_site_symmetry_multiplicity
 _atom_site_fract_x
 _atom_site_fract_y
 _atom_site_fract_z
 _atom_site_occupancy
 _atom_site_pbe_bader_charge
 _atom_site_pbe_bader_spin_density
 _atom_site_pbe_cm5_charge
 _atom_site_pbe_ddec_charge
 _atom_site_pbe_ddec_spin_density
 _atom_site_pbe_ddec_sum_bond_order
 _atom_site_pbe_magmom
Zn  Zn0  1  0.86871924  0.55476003  0.44859766  1  1.30459  0  0.693841  0.864526  0  2.329626  0
Zn  Zn1  1  0.13138760  0.44537009  0.55150895  1  1.306432  0  0.694006  0.864753  0  2.327932  0
H  H2  1  0.77933297  0.42921087  0.30578648  1  0.163169  0  0.132891  0.134144  0  0.973047  0
H  H3  1  0.22061637  0.57124486  0.69419781  1  0.168854  0  0.132839  0.134231  0  0.972706  0
H  H4  1  0.20571201  0.33951659  0.92916733  1  0.130451  0  0.111916  0.138919  0  0.991348  0
H  H5  1  0.79393445  0.66105268  0.07076813  1  0.131479  0  0.111851  0.138973  0  0.991059  0
H  H6  1  0.57580561  0.40101603  0.79282916  1  0.125678  0  0.103154  0.134288  0  1.0439  0
H  H7  1  0.42395647  0.59942447  0.20704177  1  0.125964  0  0.102907  0.134045  0  1.04378  0
H  H8  1  0.60024159  0.64956296  0.55937690  1  0.157745  0  0.135161  0.119685  0  0.970324  0
H  H9  1  0.39978611  0.35088877  0.44062775  1  0.159093  0  0.135419  0.120544  0  0.969897  0
C  C10  1  0.03305163  0.28874306  0.54001181  1  1.643063  0  0.21155  0.624306  0  4.192547  0
C  C11  1  0.96697712  0.71140351  0.45994717  1  1.640484  0  0.211753  0.623847  0  4.193467  0
C  C12  1  0.51437435  0.42579237  0.86891886  1  0.058411  0  -0.112431  -0.281112  0  4.038907  0
C  C13  1  0.48551406  0.57453745  0.13102558  1  0.063591  0  -0.112045  -0.280735  0  4.040043  0
C  C14  1  0.41149170  0.39527326  0.88667066  1  0.373412  0  0.096163  0.244861  0  4.069157  0
C  C15  1  0.58830731  0.60516809  0.11326367  1  0.374083  0  0.095279  0.244239  0  4.070567  0
C  C16  1  0.98084273  0.82137080  0.45330838  1  0.102457  0  -0.024755  -0.1686  0  3.992154  0
C  C17  1  0.01912386  0.17879733  0.54665452  1  0.103452  0  -0.024828  -0.168908  0  3.992872  0
C  C18  1  0.97613058  0.03017685  0.65301365  1  0.514933  0  0.091689  0.184392  0  4.051302  0
C  C19  1  0.02371988  0.97004563  0.34694813  1  0.514745  0  0.091525  0.184534  0  4.050917  0
C  C20  1  0.99244131  0.12915710  0.65089034  1  0.171099  0  0.004271  0.023168  0  4.08678  0
C  C21  1  0.00744734  0.87104987  0.34906976  1  0.174375  0  0.004337  0.023031  0  4.086027  0
C  C22  1  0.02830058  0.12705889  0.44882673  1  0.473181  0  0.100466  0.236616  0  4.015588  0
C  C23  1  0.97164416  0.87309593  0.55114941  1  0.474021  0  0.100615  0.236748  0  4.015535  0
C  C24  1  0.01357003  0.02510070  0.44665963  1  0.04047  0  -0.018246  -0.099793  0  4.049827  0
C  C25  1  0.98631333  0.97507946  0.55332093  1  0.087562  0  -0.018484  -0.099598  0  4.049981  0
C  C26  1  0.39511836  0.58360691  0.61527083  1  0.44936  0  0.121015  0.222851  0  4.043084  0
C  C27  1  0.60474991  0.41695971  0.38462497  1  0.464239  0  0.120541  0.222518  0  4.042046  0
C  C28  1  0.30249169  0.53987186  0.63211654  1  0.562478  0  0.040603  -0.038159  0  3.939182  0
C  C29  1  0.69741634  0.46064686  0.36782449  1  0.559653  0  0.040948  -0.037514  0  3.938741  0
C  C30  1  0.40360135  0.41481433  0.49044663  1  0.602059  0  0.074808  0.080456  0  3.860931  0
C  C31  1  0.59630659  0.58573105  0.50948688  1  0.612467  0  0.074576  0.081296  0  3.86126  0
C  C32  1  0.09680327  0.46318211  0.29717076  1  1.59482  0  0.21901  0.630544  0  4.171068  0
C  C33  1  0.90328631  0.53696465  0.70293028  1  1.595018  0  0.218663  0.63014  0  4.172776  0
C  C34  1  0.50200484  0.45592483  0.46832988  1  -0.008533  0  0.007725  -0.031035  0  4.007896  0
C  C35  1  0.49782763  0.54469287  0.53152237  1  0.034445  0  0.007231  -0.031373  0  4.009425  0
C  C36  1  0.16940827  0.45143730  0.18397041  1  0.067463  0  -0.025698  -0.19841  0  3.957162  0
C  C37  1  0.83062095  0.54879808  0.81611151  1  0.067645  0  -0.025079  -0.197101  0  3.957151  0
C  C38  1  0.22283704  0.38168547  0.99680164  1  0.095443  0  -0.097989  -0.206508  0  3.992706  0
C  C39  1  0.77692711  0.61878052  0.00316145  1  0.094454  0  -0.098109  -0.20625  0  3.992913  0
C  C40  1  0.14582536  0.39814253  0.09530615  1  0.026696  0  0.022166  0.156873  0  4.056  0
C  C41  1  0.85403442  0.60225887  0.90470935  1  0.025953  0  0.021688  0.155838  0  4.057572  0
C  C42  1  0.26910033  0.48927073  0.16720713  1  0.457085  0  0.109133  0.240868  0  3.967822  0
C  C43  1  0.73100170  0.51087526  0.83288830  1  0.459285  0  0.10882  0.240238  0  3.96834  0
C  C44  1  0.35222806  0.47644760  0.06869250  1  0.037949  0  -0.009639  -0.06773  0  3.944176  0
C  C45  1  0.64776085  0.52377949  0.93133732  1  0.03866  0  -0.009889  -0.067949  0  3.942342  0
C  C46  1  0.32566734  0.41826086  0.98403030  1  0.035121  0  -0.011413  0.007315  0  4.05436  0
C  C47  1  0.67418461  0.58211432  0.01594368  1  0.0297  0  -0.011121  0.006763  0  4.053937  0
C  C48  1  0.45909607  0.51300441  0.05055065  1  0.056241  0  -0.00117  0.071078  0  3.936187  0
C  C49  1  0.54091671  0.48718745  0.94946668  1  0.008847  0  -0.001313  0.071685  0  3.934528  0
N  N50  1  0.69208026  0.54360088  0.43145335  1  -1.21053  0  -0.312525  -0.170894  0  3.556102  0
N  N51  1  0.30786888  0.45688307  0.56851394  1  -1.224332  0  -0.313162  -0.170972  0  3.556977  0
Cl  Cl52  1  0.97416823  0.65362315  0.88863593  1  -0.182463  0  0.012242  -0.041625  0  1.514807  0
Cl  Cl53  1  0.02564251  0.34683372  0.11136719  1  -0.181994  0  0.01206  -0.041885  0  1.514322  0
Cl  Cl54  1  0.02287392  0.80765413  0.22559554  1  -0.157458  0  0.012526  -0.024979  0  1.516214  0
Cl  Cl55  1  0.97705923  0.19252880  0.77436823  1  -0.157588  0  0.012461  -0.02503  0  1.516708  0
O  O56  1  0.93433143  0.37504150  0.49966858  1  -1.173811  0  -0.309521  -0.570025  0  2.335476  0
O  O57  1  0.06575393  0.62510100  0.50022663  1  -1.174414  0  -0.309519  -0.569928  0  2.335575  0
O  O58  1  0.14041571  0.28555936  0.57480708  1  -1.13318  0  -0.311388  -0.512889  0  2.232874  0
O  O59  1  0.85959443  0.71457741  0.42523359  1  -1.132419  0  -0.311569  -0.51273  0  2.233604  0
O  O60  1  0.97009117  0.51589890  0.29848012  1  -1.120675  0  -0.308669  -0.532691  0  2.315702  0
O  O61  1  0.03000969  0.48421325  0.70163630  1  -1.12209  0  -0.308549  -0.532821  0  2.315922  0
O  O62  1  0.17090399  0.41890827  0.38186344  1  -1.16174  0  -0.307739  -0.550342  0  2.366009  0
O  O63  1  0.82921265  0.58121236  0.61823341  1  -1.159868  0  -0.307326  -0.550035  0  2.367894  0
F  F64  1  0.39000257  0.33665293  0.80727729  1  -0.633649  0  -0.095416  -0.131761  0  1.34368  0
F  F65  1  0.60965095  0.66394879  0.19258322  1  -0.633731  0  -0.09543  -0.131658  0  1.34384  0
F  F66  1  0.38809579  0.66623123  0.67871647  1  -0.620003  0  -0.077799  -0.112276  0  1.331366  0
F  F67  1  0.61189256  0.33421798  0.32130051  1  -0.619622  0  -0.078003  -0.112614  0  1.330957  0
F  F68  1  0.71378961  0.45869518  0.74514809  1  -0.638634  0  -0.081723  -0.124253  0  1.443424  0
F  F69  1  0.28651035  0.54126166  0.25501856  1  -0.639434  0  -0.081716  -0.124518  0  1.443037  0
F  F70  1  0.94705108  0.82273378  0.64981406  1  -0.618909  0  -0.096244  -0.128326  0  1.393983  0
F  F71  1  0.05290590  0.17739909  0.35015518  1  -0.61998  0  -0.09606  -0.128139  0  1.393825  0
F  F72  1  0.94918090  0.98541789  0.75360594  1  -0.615783  0  -0.096634  -0.123572  0  1.395793  0
F  F73  1  0.05065497  0.01480934  0.24635562  1  -0.617039  0  -0.096649  -0.123574  0  1.395704  0
