# generated using pymatgen
data_AlH7C11O7F
_symmetry_space_group_name_H-M   'P 1'
_cell_length_a   6.65307792
_cell_length_b   16.91397155
_cell_length_c   17.41006054
_cell_angle_alpha   89.90016842
_cell_angle_beta   89.63477821
_cell_angle_gamma   92.60587136
_symmetry_Int_Tables_number   1
_chemical_formula_structural   AlH7C11O7F
_chemical_formula_sum   'Al4 H28 C44 O28 F4'
_cell_volume   1957.08386288
_cell_formula_units_Z   4
loop_
 _symmetry_equiv_pos_site_id
 _symmetry_equiv_pos_as_xyz
  1  'x, y, z'
loop_
 _atom_site_type_symbol
 _atom_site_label
 _atom_site_symmetry_multiplicity
 _atom_site_fract_x
 _atom_site_fract_y
 _atom_site_fract_z
 _atom_site_occupancy
 _atom_site_pbe_bader_charge
 _atom_site_pbe_bader_spin_density
 _atom_site_pbe_cm5_charge
 _atom_site_pbe_ddec_charge
 _atom_site_pbe_ddec_spin_density
 _atom_site_pbe_ddec_sum_bond_order
 _atom_site_pbe_magmom
Al  Al0  1  0.77936980  0.72473843  0.24652319  1  2.502115  0  0.403535  1.639771  0  2.577851  0
Al  Al1  1  0.22838210  0.27756870  0.74800502  1  2.503303  0  0.404788  1.645525  0  2.57971  0
Al  Al2  1  0.28101515  0.72350593  0.24735767  1  2.501936  0  0.400849  1.643639  0  2.582578  0
Al  Al3  1  0.72519471  0.27885310  0.74772162  1  2.499312  0  0.403178  1.64763  0  2.576584  0
H  H4  1  0.90401987  0.04647262  0.14061727  1  0.071741  0  0.107495  0.117303  0  0.967719  0
H  H5  1  0.02869915  0.96418963  0.10087033  1  0.071188  0  0.095378  0.105308  0  1.006241  0
H  H6  1  0.91237136  0.03297606  0.03841042  1  0.037222  0  0.088623  0.083292  0  1.044043  0
H  H7  1  0.83024108  0.87645221  0.77976698  1  0.081127  0  0.107111  0.118621  0  0.974494  0
H  H8  1  0.58259172  0.90598241  0.80297887  1  0.055365  0  0.091702  0.089335  0  1.003649  0
H  H9  1  0.66565342  0.81188227  0.83632203  1  0.025886  0  0.092784  0.088433  0  1.002987  0
H  H10  1  0.03627506  0.99441721  0.57563139  1  0.02777  0  0.089517  0.087401  0  1.02231  0
H  H11  1  0.07284747  0.89555286  0.54126857  1  0.083501  0  0.095195  0.097771  0  1.008988  0
H  H12  1  0.08214729  0.91661952  0.64246351  1  0.053495  0  0.10591  0.113142  0  0.973358  0
H  H13  1  0.39726198  0.10092826  0.31199497  1  0.066956  0  0.093556  0.092134  0  0.998636  0
H  H14  1  0.31668608  0.19036911  0.35705384  1  0.053349  0  0.097676  0.097318  0  0.995631  0
H  H15  1  0.14861145  0.13318541  0.29589530  1  0.046092  0  0.110234  0.121293  0  0.965146  0
H  H16  1  0.50795277  0.72176375  0.96276969  1  0.053573  0  0.096643  0.091854  0  0.993113  0
H  H17  1  0.60469304  0.70215476  0.05694350  1  0.086671  0  0.103678  0.110901  0  1.015132  0
H  H18  1  0.74487762  0.67610615  0.97393311  1  0.055808  0  0.10563  0.112405  0  0.985993  0
H  H19  1  0.97931545  0.16529958  0.91708285  1  0.04876  0  0.095832  0.097305  0  1.022589  0
H  H20  1  0.97457951  0.25668593  0.96826754  1  0.077958  0  0.105072  0.114182  0  0.984859  0
H  H21  1  0.93252318  0.16546759  0.01935599  1  0.048901  0  0.094944  0.093712  0  1.019135  0
H  H22  1  0.99168948  0.17956895  0.58931428  1  0.067264  0  0.098525  0.107941  0  1.024365  0
H  H23  1  0.94236431  0.14675947  0.49198177  1  0.046187  0  0.091807  0.090996  0  1.023286  0
H  H24  1  0.95764920  0.25037444  0.51433298  1  0.041003  0  0.105163  0.11498  0  0.977432  0
H  H25  1  0.54985460  0.71863699  0.49059769  1  0.035165  0  0.098398  0.099319  0  0.98732  0
H  H26  1  0.65543619  0.75282895  0.58045076  1  0.059215  0  0.096227  0.093924  0  0.995271  0
H  H27  1  0.79523265  0.69008858  0.51823174  1  0.053839  0  0.104782  0.112446  0  0.992688  0
H  H28  1  0.52012207  0.62276891  0.27183415  1  0.632237  0  0.358593  0.44117  0  0.838249  0
H  H29  1  0.48641870  0.38060661  0.76768653  1  0.648952  0  0.361341  0.443545  0  0.832839  0
H  H30  1  0.04174662  0.82266460  0.27505801  1  0.631851  0  0.360195  0.445558  0  0.83256  0
H  H31  1  0.96197353  0.17626154  0.76502475  1  0.653676  0  0.360469  0.443068  0  0.834977  0
C  C32  1  0.54589417  0.81675387  0.14255390  1  1.61616  0  0.273375  0.675715  0  4.096824  0
C  C33  1  0.46685821  0.18243210  0.85186067  1  1.59617  0  0.278513  0.696435  0  4.058475  0
C  C34  1  0.46690440  0.18233108  0.64550126  1  1.583365  0  0.279919  0.692567  0  4.058299  0
C  C35  1  0.53371707  0.81929551  0.35003466  1  1.592141  0  0.275891  0.690468  0  4.079406  0
C  C36  1  0.01181088  0.62781998  0.35056825  1  1.688711  0  0.277178  0.705925  0  4.173182  0
C  C37  1  0.98889956  0.37206488  0.64336411  1  1.716065  0  0.277742  0.694991  0  4.194485  0
C  C38  1  0.98860425  0.37630788  0.84984632  1  1.707562  0  0.274585  0.696589  0  4.193655  0
C  C39  1  0.02654129  0.63118708  0.14247801  1  1.720763  0  0.28083  0.702481  0  4.173861  0
C  C40  1  0.01694991  0.57662280  0.07890459  1  0.270745  0  0.004729  -0.137855  0  3.841205  0
C  C41  1  0.99396833  0.43139764  0.91299590  1  0.092962  0  -0.002683  -0.148811  0  3.855775  0
C  C42  1  0.99782833  0.42761240  0.58032388  1  0.074973  0  0.003495  -0.136151  0  3.845621  0
C  C43  1  0.00934741  0.57444304  0.41521999  1  0.247659  0  -0.003613  -0.153054  0  3.857958  0
C  C44  1  0.00883656  0.52958930  0.02565313  1  -0.341853  0  -0.003792  0.029055  0  4.233071  0
C  C45  1  0.00064449  0.47800523  0.96661353  1  -0.258893  0  -0.003414  0.035786  0  4.232505  0
C  C46  1  0.00301927  0.47538164  0.52753308  1  -0.158868  0  -0.005672  0.028636  0  4.234164  0
C  C47  1  0.00718196  0.52756563  0.46880605  1  -0.376552  0  -0.004536  0.033378  0  4.238511  0
C  C48  1  0.54216293  0.87277941  0.07608102  1  0.090428  0  -0.028183  -0.245352  0  3.984504  0
C  C49  1  0.45795865  0.12067711  0.91362538  1  0.073143  0  -0.026752  -0.238516  0  3.993043  0
C  C50  1  0.46053086  0.12247101  0.58231726  1  0.071089  0  -0.025983  -0.240504  0  3.984845  0
C  C51  1  0.54352222  0.87896911  0.41343619  1  0.05445  0  -0.027148  -0.241128  0  4.003964  0
C  C52  1  0.30514449  0.06732594  0.03170298  1  0.559611  0  0.074833  0.112426  0  4.023153  0
C  C53  1  0.66750666  0.92011652  0.95141606  1  0.583391  0  0.070308  0.099923  0  4.04774  0
C  C54  1  0.68307399  0.92597335  0.53522960  1  0.581445  0  0.074131  0.109375  0  4.039776  0
C  C55  1  0.31899883  0.07449802  0.46101639  1  0.527004  0  0.071164  0.098054  0  4.056821  0
C  C56  1  0.32416763  0.12753056  0.97707235  1  0.579982  0  0.080625  0.151598  0  4.058042  0
C  C57  1  0.65348008  0.86078186  0.00711606  1  0.531799  0  0.082957  0.150575  0  4.051617  0
C  C58  1  0.67215421  0.86959296  0.47725736  1  0.537374  0  0.079947  0.146257  0  4.060903  0
C  C59  1  0.33079241  0.13151188  0.51850369  1  0.610445  0  0.082158  0.148466  0  4.070137  0
C  C60  1  0.56812345  0.05374870  0.90620358  1  0.467601  0  0.103297  0.237293  0  4.019301  0
C  C61  1  0.43550735  0.94084736  0.08323447  1  0.422466  0  0.1094  0.251325  0  4.004065  0
C  C62  1  0.42973198  0.94512185  0.40938057  1  0.466248  0  0.107786  0.246207  0  4.008923  0
C  C63  1  0.57501152  0.05623883  0.58625456  1  0.490797  0  0.108797  0.247294  0  4.013577  0
C  C64  1  0.55714861  0.99030733  0.95967124  1  0.043532  0  -0.018934  -0.102739  0  4.049146  0
C  C65  1  0.42683821  0.99976886  0.02551238  1  0.046447  0  -0.019187  -0.105957  0  4.030955  0
C  C66  1  0.43571257  0.00573714  0.46566180  1  0.048927  0  -0.016577  -0.098634  0  4.034917  0
C  C67  1  0.56806558  0.99529928  0.53023410  1  0.016882  0  -0.017175  -0.099984  0  4.021744  0
C  C68  1  0.99543798  0.02661407  0.09235243  1  0.380947  0  -0.1429  -0.178397  0  3.903956  0
C  C69  1  0.71197779  0.87398518  0.82392927  1  0.392913  0  -0.137757  -0.16376  0  3.922189  0
C  C70  1  0.01035406  0.93087258  0.58797247  1  0.386961  0  -0.140088  -0.168266  0  3.901219  0
C  C71  1  0.26943423  0.13034573  0.33814128  1  0.397138  0  -0.13553  -0.16512  0  3.897974  0
C  C72  1  0.64479013  0.71963419  0.99783654  1  0.351422  0  -0.136759  -0.172279  0  3.886906  0
C  C73  1  0.01552547  0.19479817  0.97174039  1  0.39307  0  -0.138697  -0.161868  0  3.882467  0
C  C74  1  0.01638995  0.19257248  0.52806824  1  0.422851  0  -0.142448  -0.173072  0  3.869651  0
C  C75  1  0.68937549  0.73778361  0.52036923  1  0.396519  0  -0.134329  -0.164028  0  3.892136  0
O  O76  1  0.36066607  0.78964631  0.33316859  1  -1.244466  0  -0.234254  -0.599364  0  2.331196  0
O  O77  1  0.63848829  0.20520148  0.67066119  1  -1.244619  0  -0.227522  -0.588613  0  2.35804  0
O  O78  1  0.64017424  0.20846792  0.82995714  1  -1.248394  0  -0.232451  -0.601974  0  2.350152  0
O  O79  1  0.37844344  0.79960419  0.17510856  1  -1.254572  0  -0.228124  -0.588575  0  2.379054  0
O  O80  1  0.71528877  0.79137209  0.16198305  1  -1.245038  0  -0.227184  -0.575034  0  2.327282  0
O  O81  1  0.29918538  0.20217625  0.82483059  1  -1.251827  0  -0.229524  -0.59371  0  2.348606  0
O  O82  1  0.29858941  0.20458052  0.67014040  1  -1.24184  0  -0.224131  -0.579882  0  2.355662  0
O  O83  1  0.69960850  0.80414882  0.31792525  1  -1.253127  0  -0.2284  -0.590502  0  2.333313  0
O  O84  1  0.85961361  0.64647404  0.17382399  1  -1.227548  0  -0.220429  -0.571514  0  2.298729  0
O  O85  1  0.15771235  0.35262667  0.82719299  1  -1.228212  0  -0.222352  -0.572997  0  2.287662  0
O  O86  1  0.15630859  0.35179660  0.66986446  1  -1.224978  0  -0.219335  -0.562337  0  2.290746  0
O  O87  1  0.84347275  0.65453010  0.33157213  1  -1.224408  0  -0.222618  -0.573092  0  2.280195  0
O  O88  1  0.52522955  0.67472447  0.24811808  1  -1.432868  0  -0.447311  -0.994992  0  2.196516  0
O  O89  1  0.48176609  0.32692516  0.74826373  1  -1.448388  0  -0.446794  -0.995101  0  2.202601  0
O  O90  1  0.18244759  0.64192388  0.31853799  1  -1.233704  0  -0.227415  -0.586117  0  2.285894  0
O  O91  1  0.81388864  0.34973367  0.66640190  1  -1.228071  0  -0.219917  -0.564042  0  2.295465  0
O  O92  1  0.81556997  0.35731193  0.82306381  1  -1.229464  0  -0.225307  -0.579382  0  2.289147  0
O  O93  1  0.20045522  0.65780677  0.16151279  1  -1.221712  0  -0.217227  -0.557092  0  2.287689  0
O  O94  1  0.03596075  0.77149670  0.24977672  1  -1.429101  0  -0.445345  -0.992738  0  2.177848  0
O  O95  1  0.97066348  0.23148932  0.74978534  1  -1.45348  0  -0.445784  -1.000432  0  2.209792  0
O  O96  1  0.17509826  0.07782855  0.09194374  1  -1.078791  0  -0.208378  -0.182451  0  2.563776  0
O  O97  1  0.79784738  0.91141509  0.89093239  1  -1.071416  0  -0.213921  -0.186923  0  2.58007  0
O  O98  1  0.79852332  0.91157932  0.59847700  1  -1.064018  0  -0.212187  -0.192085  0  2.571824  0
O  O99  1  0.18691256  0.08456387  0.40185442  1  -1.064312  0  -0.210777  -0.188791  0  2.576172  0
O  O100  1  0.75775275  0.79439667  0.99398796  1  -1.05268  0  -0.195976  -0.163108  0  2.555367  0
O  O101  1  0.22940092  0.19711287  0.98491952  1  -1.06657  0  -0.204553  -0.174462  0  2.546933  0
O  O102  1  0.22982892  0.19977867  0.51124383  1  -1.084763  0  -0.204939  -0.178988  0  2.538874  0
O  O103  1  0.78760749  0.80453076  0.48168280  1  -1.061943  0  -0.203248  -0.175816  0  2.540846  0
F  F104  1  0.34579097  0.95437563  0.15202371  1  -0.623683  0  -0.081899  -0.116576  0  1.410345  0
F  F105  1  0.68632003  0.04810728  0.84248638  1  -0.634457  0  -0.087335  -0.123503  0  1.401198  0
F  F106  1  0.69485246  0.04851463  0.64834968  1  -0.626692  0  -0.084841  -0.118082  0  1.402203  0
F  F107  1  0.31258364  0.95277099  0.34633815  1  -0.622271  0  -0.084853  -0.118297  0  1.387823  0
