# generated using pymatgen
data_ZnH44C36NO18
_symmetry_space_group_name_H-M   'P 1'
_cell_length_a   10.75516863
_cell_length_b   18.53357033
_cell_length_c   19.00324149
_cell_angle_alpha   90.89231925
_cell_angle_beta   90.77269740
_cell_angle_gamma   90.95059090
_symmetry_Int_Tables_number   1
_chemical_formula_structural   ZnH44C36NO18
_chemical_formula_sum   'Zn2 H88 C72 N2 O36'
_cell_volume   3786.60943424
_cell_formula_units_Z   2
loop_
 _symmetry_equiv_pos_site_id
 _symmetry_equiv_pos_as_xyz
  1  'x, y, z'
loop_
 _atom_site_type_symbol
 _atom_site_label
 _atom_site_symmetry_multiplicity
 _atom_site_fract_x
 _atom_site_fract_y
 _atom_site_fract_z
 _atom_site_occupancy
 _atom_site_pbe_bader_charge
 _atom_site_pbe_bader_spin_density
 _atom_site_pbe_cm5_charge
 _atom_site_pbe_ddec_charge
 _atom_site_pbe_ddec_spin_density
 _atom_site_pbe_ddec_sum_bond_order
 _atom_site_pbe_magmom
Zn  Zn0  1  0.48694269  0.57466046  0.50661405  1  1.301769  0  0.690353  0.85301  0  2.393893  0
Zn  Zn1  1  0.49411115  0.41262630  0.50450726  1  1.317651  0  0.702934  0.902548  0  2.282575  0
H  H2  1  0.02614225  0.33315767  0.51503058  1  0.633907  0  0.326405  0.363309  0  0.910869  0
H  H3  1  0.73460591  0.78711077  0.20966377  1  0.022473  0  0.090663  0.121162  0  1.007608  0
H  H4  1  0.80894754  0.79739208  0.29302886  1  -0.01002  0  0.087266  0.113002  0  0.999957  0
H  H5  1  0.31624146  0.86582446  0.59407969  1  0.026692  0  0.096392  0.060806  0  0.995448  0
H  H6  1  0.30273308  0.94344982  0.65045875  1  0.045218  0  0.09428  0.05657  0  0.973874  0
H  H7  1  0.41636670  0.79905009  0.69268503  1  0.056854  0  0.09743  0.097191  0  0.966884  0
H  H8  1  0.40359405  0.87601953  0.74838389  1  0.040161  0  0.091697  0.082102  0  0.982931  0
H  H9  1  0.16722972  0.86835883  0.73378618  1  0.029481  0  0.085167  0.108605  0  1.005713  0
H  H10  1  0.22856576  0.78968797  0.77172231  1  0.02911  0  0.085475  0.109334  0  1.021203  0
H  H11  1  0.18338247  0.78856128  0.68168348  1  0.04775  0  0.090513  0.12119  0  0.992028  0
H  H12  1  0.44565566  0.12980526  0.30322742  1  0.069297  0  0.11118  0.081361  0  0.9612  0
H  H13  1  0.77807448  0.37835924  0.53339895  1  0.648542  0  0.306852  0.364155  0  0.971776  0
H  H14  1  0.36678197  0.12504634  0.38510867  1  0.050222  0  0.099916  0.063603  0  0.991369  0
H  H15  1  0.37792303  0.00317152  0.27378497  1  0.033745  0  0.095643  0.092922  0  0.970913  0
H  H16  1  0.30463237  0.99564041  0.35579807  1  0.053742  0  0.09572  0.097133  0  0.973769  0
H  H17  1  0.15753290  0.09566425  0.32373835  1  0.021093  0  0.087632  0.112393  0  1.000523  0
H  H18  1  0.14775945  0.02345248  0.26143803  1  0.045127  0  0.090964  0.119145  0  0.997277  0
H  H19  1  0.23028678  0.10391624  0.24086805  1  0.038988  0  0.087883  0.111684  0  1.001025  0
H  H20  1  0.56671786  0.12935781  0.70302382  1  0.058749  0  0.114002  0.085835  0  0.946465  0
H  H21  1  0.64440255  0.12735694  0.62063860  1  0.058644  0  0.0997  0.063396  0  0.990826  0
H  H22  1  0.63567925  0.00410114  0.72708572  1  0.043802  0  0.095062  0.09282  0  0.969564  0
H  H23  1  0.70646799  0.99855732  0.64407774  1  0.043957  0  0.095624  0.096927  0  0.975644  0
H  H24  1  0.75980763  0.79533649  0.57665186  1  0.624825  0  0.3343  0.371438  0  0.882977  0
H  H25  1  0.85515630  0.10063403  0.67829922  1  0.013561  0  0.087373  0.111914  0  1.001026  0
H  H26  1  0.86610374  0.02848108  0.73821277  1  0.025222  0  0.090364  0.118328  0  0.997752  0
H  H27  1  0.78497110  0.10756027  0.76209865  1  0.035792  0  0.088221  0.11241  0  1.00023  0
H  H28  1  0.36694231  0.11794618  0.61086706  1  0.637037  0  0.306794  0.341896  0  0.986319  0
H  H29  1  0.64470846  0.12202138  0.39516757  1  0.647206  0  0.308591  0.343745  0  0.981388  0
H  H30  1  0.28728859  0.26412177  0.60546828  1  0.635033  0  0.340712  0.376311  0  0.872734  0
H  H31  1  0.71856627  0.26952316  0.40446889  1  0.647593  0  0.344939  0.384179  0  0.859811  0
H  H32  1  0.14719208  0.58685815  0.46230646  1  0.617846  0  0.326208  0.358096  0  0.918323  0
H  H33  1  0.98136540  0.57135330  0.52879211  1  0.636525  0  0.302416  0.341446  0  0.999924  0
H  H34  1  0.54528977  0.40942996  0.66073991  1  0.647484  0  0.301312  0.350672  0  0.974359  0
H  H35  1  0.25434964  0.79387145  0.41783183  1  0.631183  0  0.335293  0.37175  0  0.881148  0
H  H36  1  0.67061040  0.39688671  0.35285579  1  0.632333  0  0.300975  0.349097  0  0.977559  0
H  H37  1  0.80661668  0.51999140  0.83403498  1  0.02683  0  0.093748  0.05549  0  1.012664  0
H  H38  1  0.82273562  0.45055652  0.76821146  1  0.027712  0  0.092813  0.057817  0  0.976065  0
H  H39  1  0.86677918  0.43100206  0.92659204  1  0.044985  0  0.092269  0.086049  0  0.984549  0
H  H40  1  0.89869183  0.36675890  0.85956998  1  0.02921  0  0.089128  0.080639  0  0.972628  0
H  H41  1  0.05743519  0.45557348  0.80830486  1  0.022567  0  0.083334  0.107889  0  1.004772  0
H  H42  1  0.09651245  0.43305682  0.89631300  1  0.026093  0  0.083339  0.113729  0  1.01133  0
H  H43  1  0.02636743  0.51683459  0.87829370  1  0.047904  0  0.083648  0.109341  0  1.007403  0
H  H44  1  0.74570149  0.31120004  0.09138648  1  0.008663  0  0.1001  0.06622  0  0.963125  0
H  H45  1  0.59377261  0.34802990  0.09570201  1  0.06015  0  0.093996  0.059507  0  1.025558  0
H  H46  1  0.69441736  0.87061624  0.39242090  1  0.042129  0  0.096074  0.059263  0  0.987235  0
H  H47  1  0.71951709  0.26079195  0.21193881  1  0.019332  0  0.087313  0.08275  0  0.978133  0
H  H48  1  0.56891492  0.29684304  0.21619712  1  0.034972  0  0.089238  0.085974  0  0.983057  0
H  H49  1  0.49992891  0.21993277  0.11107928  1  0.030721  0  0.084256  0.10986  0  1.004304  0
H  H50  1  0.55755689  0.16511782  0.17963831  1  0.01592  0  0.078719  0.099642  0  1.023291  0
H  H51  1  0.65118043  0.18353005  0.10573192  1  0.022378  0  0.081671  0.103448  0  1.009202  0
H  H52  1  0.47313417  0.72630549  0.91530550  1  0.024493  0  0.099061  0.065445  0  1.007494  0
H  H53  1  0.39475577  0.74562718  0.83507760  1  -0.002906  0  0.092384  0.048513  0  1.007528  0
H  H54  1  0.64959675  0.67439095  0.84579761  1  0.078108  0  0.094204  0.094349  0  1.0238  0
H  H55  1  0.57256134  0.69674721  0.76664217  1  0.037835  0  0.092826  0.091957  0  0.980417  0
H  H56  1  0.58193616  0.82887667  0.80094305  1  0.018109  0  0.08266  0.103805  0  1.035891  0
H  H57  1  0.69628585  0.94642351  0.33508312  1  0.044826  0  0.093877  0.055748  0  0.975592  0
H  H58  1  0.73238164  0.79150337  0.80127498  1  0.022249  0  0.08892  0.11819  0  0.99568  0
H  H59  1  0.65572253  0.80750082  0.88197782  1  0.032549  0  0.083697  0.108097  0  1.023188  0
H  H60  1  0.54293902  0.67409607  0.14055490  1  0.041699  0  0.093144  0.054247  0  0.993394  0
H  H61  1  0.39977387  0.68532802  0.18575930  1  0.041969  0  0.091601  0.0565  0  0.993546  0
H  H62  1  0.42960645  0.65443502  0.02730281  1  0.048774  0  0.089345  0.083423  0  1.003891  0
H  H63  1  0.28588313  0.65474418  0.07065228  1  0.061247  0  0.093332  0.089476  0  0.978118  0
H  H64  1  0.31791430  0.78558902  0.10561128  1  0.029145  0  0.082639  0.105817  0  1.008769  0
H  H65  1  0.32529771  0.77408884  0.01288592  1  0.037154  0  0.082962  0.10804  0  1.011214  0
H  H66  1  0.46425343  0.78699904  0.06338462  1  0.001655  0  0.080155  0.103635  0  1.021476  0
H  H67  1  0.30411149  0.64679388  0.76986889  1  0.607603  0  0.320701  0.341271  0  0.927401  0
H  H68  1  0.57321049  0.79832844  0.30287611  1  0.049242  0  0.096211  0.093693  0  0.966636  0
H  H69  1  0.47220149  0.60584842  0.34013690  1  0.613077  0  0.301355  0.346814  0  0.978365  0
H  H70  1  0.84089378  0.69477642  0.92285388  1  0.033992  0  0.100991  0.067317  0  0.967022  0
H  H71  1  0.87873558  0.64921616  0.00196115  1  0.067498  0  0.096999  0.055492  0  1.033502  0
H  H72  1  0.63494535  0.72793997  0.97394487  1  0.043684  0  0.086658  0.076184  0  1.026015  0
H  H73  1  0.67526116  0.68345818  0.05236199  1  0.041408  0  0.093127  0.087738  0  1.029057  0
H  H74  1  0.85860542  0.76861376  0.07116492  1  0.018839  0  0.086908  0.113348  0  1.01454  0
H  H75  1  0.71718014  0.81620305  0.06580232  1  0.024427  0  0.084219  0.108954  0  1.013375  0
H  H76  1  0.81834590  0.81428555  0.99277866  1  0.000696  0  0.081034  0.102358  0  1.013324  0
H  H77  1  0.93392211  0.53918151  0.02972473  1  -0.001901  0  0.09045  0.048281  0  0.993276  0
H  H78  1  0.86368486  0.47186590  0.08415200  1  0.083763  0  0.098341  0.064016  0  1.015494  0
H  H79  1  0.56783668  0.87330911  0.24670455  1  0.024122  0  0.093418  0.0853  0  0.969665  0
H  H80  1  0.92315577  0.54006519  0.19120114  1  0.034213  0  0.095624  0.093262  0  0.966693  0
H  H81  1  0.05492764  0.52082892  0.14011979  1  0.026744  0  0.097967  0.093403  0  0.962394  0
H  H82  1  0.05381638  0.64859536  0.09333830  1  -0.012134  0  0.079625  0.09715  0  1.025283  0
H  H83  1  0.07020804  0.64747469  0.18632996  1  0.027374  0  0.086597  0.114511  0  0.99883  0
H  H84  1  0.92391306  0.66760434  0.14719563  1  0.019495  0  0.083034  0.109189  0  1.023967  0
H  H85  1  0.34237269  0.40873074  0.03166965  1  0.602223  0  0.33056  0.366438  0  0.889096  0
H  H86  1  0.38132933  0.46040796  0.88063437  1  0.610956  0  0.322251  0.360359  0  0.908183  0
H  H87  1  0.69469454  0.63501567  0.55721054  1  0.674697  0  0.307783  0.377428  0  0.957918  0
H  H88  1  0.31137719  0.63396740  0.44094494  1  0.648961  0  0.311303  0.370409  0  0.97611  0
H  H89  1  0.80186703  0.87174376  0.23524656  1  0.028229  0  0.08313  0.103923  0  1.010235  0
C  C90  1  0.56815275  0.50327101  0.37661299  1  1.44617  0  0.212884  0.626497  0  4.140696  0
C  C91  1  0.47828734  0.48159050  0.96462167  1  0.451313  0  0.060313  0.145175  0  4.101436  0
C  C92  1  0.59771279  0.72186708  0.53041594  1  1.061012  0  0.188178  0.340502  0  4.134178  0
C  C93  1  0.40857708  0.72155893  0.46920838  1  1.121789  0  0.181566  0.329931  0  4.138007  0
C  C94  1  0.60411050  0.79760136  0.52973033  1  0.543444  0  0.064495  0.104714  0  4.104763  0
C  C95  1  0.40815380  0.79682591  0.46744393  1  0.494242  0  0.063111  0.101557  0  4.121617  0
C  C96  1  0.50748260  0.83586329  0.49853953  1  0.108303  0  -0.013344  -0.060567  0  4.038871  0
C  C97  1  0.51816605  0.95362302  0.43638977  1  0.565923  0  0.082713  0.124765  0  4.07499  0
C  C98  1  0.49557357  0.95305725  0.56332859  1  0.527689  0  0.081061  0.122547  0  4.073847  0
C  C99  1  0.51625610  0.02927078  0.43802582  1  0.530082  0  0.070334  0.097567  0  4.028975  0
C  C100  1  0.49626731  0.02865968  0.56447024  1  0.503639  0  0.069061  0.097409  0  4.033522  0
C  C101  1  0.43410744  0.50890937  0.63530573  1  1.528877  0  0.213335  0.629892  0  4.133352  0
C  C102  1  0.50592198  0.06846930  0.50197162  1  -0.059602  0  -0.022081  -0.089952  0  4.03298  0
C  C103  1  0.72299691  0.49178501  0.54837303  1  1.511013  0  0.213906  0.562021  0  4.144805  0
C  C104  1  0.26027145  0.48620795  0.46817899  1  1.524769  0  0.209824  0.564522  0  4.214921  0
C  C105  1  0.50825515  0.91542798  0.49928651  1  0.083203  0  -0.010154  -0.057978  0  3.99434  0
C  C106  1  0.41760980  0.18725267  0.54325373  1  0.575719  0  0.051603  0.0724  0  4.11995  0
C  C107  1  0.58960289  0.18965781  0.46431820  1  0.52605  0  0.050157  0.070906  0  4.129718  0
C  C108  1  0.41963941  0.26291184  0.54260035  1  1.087905  0  0.199724  0.35314  0  4.111521  0
C  C109  1  0.58415259  0.26503215  0.46649432  1  1.113776  0  0.196963  0.346259  0  4.113345  0
C  C110  1  0.50425539  0.14831055  0.50327178  1  0.059013  0  -0.017962  -0.07248  0  4.070189  0
C  C111  1  0.05312608  0.43165317  0.50156244  1  0.592943  0  0.081133  0.173532  0  4.058203  0
C  C112  1  0.46096605  0.51578437  0.71158643  1  0.02879  0  -0.052365  -0.277545  0  3.985418  0
C  C113  1  0.92368212  0.43668310  0.52293749  1  0.50516  0  0.065796  0.117126  0  4.069296  0
C  C114  1  0.12626572  0.48756633  0.47844064  1  0.510496  0  0.046079  0.005704  0  3.981367  0
C  C115  1  0.85845267  0.49709690  0.54424673  1  0.6001  0  0.04808  0.021431  0  4.073793  0
C  C116  1  0.54752642  0.46761343  0.74225526  1  0.545453  0  0.079786  0.216787  0  4.096408  0
C  C117  1  0.64499979  0.44423703  0.26639342  1  0.527894  0  0.079158  0.227091  0  4.086468  0
C  C118  1  0.59016841  0.47916879  0.81191384  1  0.581252  0  0.055886  0.067668  0  4.07081  0
C  C119  1  0.65398746  0.44299153  0.19264669  1  0.549432  0  0.057572  0.071352  0  4.046391  0
C  C120  1  0.54058654  0.53428410  0.85426809  1  -0.045186  0  -0.016232  -0.066436  0  4.057426  0
C  C121  1  0.58673368  0.49286852  0.15323791  1  -0.004591  0  -0.007909  -0.039028  0  4.017346  0
C  C122  1  0.45562913  0.58195763  0.82395049  1  0.456914  0  0.043757  0.037101  0  4.109343  0
C  C123  1  0.57918161  0.50069883  0.30009422  1  0.027249  0  -0.062162  -0.315426  0  4.043718  0
C  C124  1  0.51111167  0.54411739  0.18622220  1  0.618071  0  0.057759  0.073792  0  4.060773  0
C  C125  1  0.41634786  0.57295278  0.75349732  1  0.551129  0  0.072687  0.208695  0  4.112544  0
C  C126  1  0.51419536  0.55205035  0.25949023  1  0.522232  0  0.076457  0.222846  0  4.095337  0
C  C127  1  0.64380219  0.89712310  0.34928075  1  0.393576  0  -0.064493  0.038661  0  3.884879  0
C  C128  1  0.62586784  0.84645474  0.28631523  1  -0.021348  0  -0.165017  -0.125586  0  3.979038  0
C  C129  1  0.74965792  0.82459340  0.25439653  1  -0.0178  0  -0.240918  -0.351699  0  3.979525  0
C  C130  1  0.35740598  0.89450444  0.64033628  1  0.404373  0  -0.064831  0.038584  0  3.881543  0
C  C131  1  0.35870843  0.84625266  0.70405567  1  -0.040174  0  -0.166273  -0.130278  0  3.981057  0
C  C132  1  0.22729653  0.82194955  0.72370186  1  -0.089045  0  -0.240424  -0.352152  0  3.978693  0
C  C133  1  0.41367172  0.09301551  0.34427795  1  0.363314  0  -0.059625  0.04083  0  3.836472  0
C  C134  1  0.66179013  0.55927021  0.97075055  1  0.448725  0  0.067892  0.109488  0  4.059405  0
C  C135  1  0.32815541  0.03396733  0.31416958  1  -0.029164  0  -0.169704  -0.140033  0  3.975868  0
C  C136  1  0.20951976  0.06612337  0.28336190  1  -0.072492  0  -0.239223  -0.3491  0  3.974747  0
C  C137  1  0.59820796  0.09382232  0.66028324  1  0.35266  0  -0.059909  0.041149  0  3.837867  0
C  C138  1  0.68435270  0.03611336  0.68739669  1  -0.006718  0  -0.169278  -0.138448  0  3.976362  0
C  C139  1  0.80409759  0.07015149  0.71820637  1  -0.049971  0  -0.239467  -0.350377  0  3.976263  0
C  C140  1  0.80342702  0.46116803  0.82433462  1  0.433347  0  -0.070627  0.037201  0  3.874704  0
C  C141  1  0.89728029  0.42500190  0.87176926  1  -0.014743  0  -0.168124  -0.125983  0  3.984787  0
C  C142  1  0.02655346  0.45926565  0.86322018  1  -0.104679  0  -0.244189  -0.352798  0  3.982142  0
C  C143  1  0.67493278  0.33193677  0.12742818  1  0.441261  0  -0.068551  0.032888  0  3.889891  0
C  C144  1  0.63750887  0.27433507  0.17982310  1  -0.007313  0  -0.17428  -0.138393  0  3.986336  0
C  C145  1  0.67694070  0.54120970  0.04199464  1  0.552119  0  0.059923  0.078612  0  4.072184  0
C  C146  1  0.58357972  0.20712794  0.14208260  1  -0.08847  0  -0.244924  -0.348056  0  3.999382  0
C  C147  1  0.46178479  0.70910582  0.85989581  1  0.405963  0  -0.068174  0.039364  0  3.857003  0
C  C148  1  0.58543726  0.71304751  0.82224980  1  -0.031249  0  -0.174719  -0.153402  0  3.976735  0
C  C149  1  0.64156211  0.78945527  0.82698602  1  -0.065273  0  -0.243183  -0.347736  0  3.972092  0
C  C150  1  0.44318036  0.65890442  0.14007238  1  0.435364  0  -0.068856  0.039307  0  3.892048  0
C  C151  1  0.37980277  0.67937322  0.07144348  1  -0.034348  0  -0.170128  -0.134617  0  3.980222  0
C  C152  1  0.37152726  0.76091134  0.06288187  1  -0.091682  0  -0.245843  -0.352995  0  4.001068  0
C  C153  1  0.80149753  0.66546091  0.96753920  1  0.401069  0  -0.068738  0.032751  0  3.891754  0
C  C154  1  0.71364799  0.71361123  0.00817424  1  -0.040721  0  -0.175648  -0.153358  0  3.986415  0
C  C155  1  0.78067717  0.78188363  0.03588112  1  -0.044208  0  -0.243308  -0.348653  0  3.982521  0
C  C156  1  0.58868302  0.49665679  0.07522414  1  0.095614  0  -0.022964  -0.092305  0  4.047026  0
C  C157  1  0.88755340  0.52965042  0.08051651  1  0.404543  0  -0.069306  0.029556  0  3.880088  0
C  C158  1  0.97054175  0.55368683  0.14202869  1  -0.000113  0  -0.163446  -0.12437  0  3.971921  0
C  C159  1  0.00645938  0.63385515  0.14223294  1  -0.035851  0  -0.2458  -0.349017  0  3.97757  0
C  C160  1  0.56114691  0.52882887  0.93165572  1  0.096202  0  -0.033981  -0.112212  0  4.056965  0
C  C161  1  0.49015103  0.46630714  0.03611090  1  0.511718  0  0.063022  0.15879  0  4.106178  0
N  N162  1  0.50026743  0.68512289  0.50121540  1  -1.282258  0  -0.35445  -0.415388  0  3.546519  0
N  N163  1  0.50074694  0.30144133  0.50454082  1  -1.275301  0  -0.338539  -0.384816  0  3.480016  0
O  O164  1  0.54437104  0.56457891  0.40604568  1  -1.166723  0  -0.318147  -0.551511  0  2.383374  0
O  O165  1  0.86896801  0.36980479  0.52076627  1  -1.14709  0  -0.36084  -0.464117  0  2.351964  0
O  O166  1  0.70568469  0.83289617  0.55832227  1  -1.122173  0  -0.354683  -0.424508  0  2.281878  0
O  O167  1  0.30997200  0.83151484  0.43758438  1  -1.132067  0  -0.353456  -0.423296  0  2.288914  0
O  O168  1  0.52159311  0.91721476  0.37324705  1  -1.060673  0  -0.195391  -0.224476  0  2.57647  0
O  O169  1  0.48443077  0.91601403  0.62499681  1  -1.057377  0  -0.198035  -0.226414  0  2.546699  0
O  O170  1  0.52884495  0.06476082  0.37455750  1  -1.072967  0  -0.195879  -0.229996  0  2.559603  0
O  O171  1  0.48280227  0.06355399  0.62914672  1  -1.069222  0  -0.195539  -0.233865  0  2.563948  0
O  O172  1  0.32618233  0.15714325  0.58373924  1  -1.160905  0  -0.376923  -0.466822  0  2.307868  0
O  O173  1  0.68333215  0.16223452  0.42404439  1  -1.169652  0  -0.37533  -0.463874  0  2.306449  0
O  O174  1  0.33855632  0.30023390  0.58147705  1  -1.115186  0  -0.321225  -0.406062  0  2.302177  0
O  O175  1  0.40721891  0.56480228  0.60049869  1  -1.156218  0  -0.323117  -0.527679  0  2.309379  0
O  O176  1  0.66648684  0.30422896  0.42963354  1  -1.128567  0  -0.318414  -0.414507  0  2.35025  0
O  O177  1  0.07412921  0.55444531  0.46666047  1  -1.118022  0  -0.343887  -0.406003  0  2.380161  0
O  O178  1  0.90674316  0.56376039  0.55892148  1  -1.145226  0  -0.370612  -0.426025  0  2.34106  0
O  O179  1  0.59314285  0.41076293  0.70657417  1  -1.158748  0  -0.359528  -0.428353  0  2.29929  0
O  O180  1  0.70216781  0.39244195  0.30396596  1  -1.141063  0  -0.361229  -0.444425  0  2.318016  0
O  O181  1  0.67888204  0.43455323  0.83957415  1  -1.058899  0  -0.211049  -0.222854  0  2.490326  0
O  O182  1  0.73306965  0.39486214  0.16055274  1  -1.067421  0  -0.207791  -0.222992  0  2.522355  0
O  O183  1  0.40107491  0.63745240  0.86186807  1  -1.059312  0  -0.218466  -0.250763  0  2.486941  0
O  O184  1  0.42964163  0.58179417  0.14503304  1  -1.107008  0  -0.19723  -0.207669  0  2.569625  0
O  O185  1  0.33046018  0.61949043  0.72801042  1  -1.109113  0  -0.35089  -0.410246  0  2.289803  0
O  O186  1  0.58048957  0.44532436  0.41185326  1  -1.178361  0  -0.31162  -0.56365  0  2.371128  0
O  O187  1  0.44935333  0.60661309  0.28910664  1  -1.135526  0  -0.361066  -0.440586  0  2.302674  0
O  O188  1  0.74334527  0.60248156  0.93403335  1  -1.073861  0  -0.19564  -0.215291  0  2.551893  0
O  O189  1  0.77369084  0.57057787  0.08253403  1  -1.068399  0  -0.205547  -0.230104  0  2.555768  0
O  O190  1  0.40425968  0.42236177  0.06780544  1  -1.111586  0  -0.355134  -0.431977  0  2.268113  0
O  O191  1  0.37916172  0.44775057  0.93038700  1  -1.14769  0  -0.36534  -0.460877  0  2.292692  0
O  O192  1  0.69436127  0.68955091  0.56185063  1  -1.191643  0  -0.350938  -0.483465  0  2.313749  0
O  O193  1  0.31055025  0.68772493  0.43662313  1  -1.17707  0  -0.361575  -0.493037  0  2.302801  0
O  O194  1  0.44808655  0.44595404  0.60684211  1  -1.165315  0  -0.312151  -0.567484  0  2.384417  0
O  O195  1  0.65962314  0.54984852  0.55029521  1  -1.184927  0  -0.305624  -0.541353  0  2.39871  0
O  O196  1  0.31095284  0.54963859  0.45913657  1  -1.19353  0  -0.330539  -0.603152  0  2.406382  0
O  O197  1  0.67196483  0.42824409  0.54745418  1  -1.152259  0  -0.306189  -0.535982  0  2.41893  0
O  O198  1  0.31956377  0.42801181  0.47044546  1  -1.142744  0  -0.303181  -0.501954  0  2.360424  0
O  O199  1  0.09810104  0.36371470  0.50242066  1  -1.10433  0  -0.33785  -0.396745  0  2.301514  0
