# generated using pymatgen
data_AlH6C13N2ClO7
_symmetry_space_group_name_H-M   'P 1'
_cell_length_a   6.69522267
_cell_length_b   11.08749478
_cell_length_c   16.91824948
_cell_angle_alpha   84.35327937
_cell_angle_beta   82.83158968
_cell_angle_gamma   74.24896771
_symmetry_Int_Tables_number   1
_chemical_formula_structural   AlH6C13N2ClO7
_chemical_formula_sum   'Al2 H12 C26 N4 Cl2 O14'
_cell_volume   1196.54960902
_cell_formula_units_Z   2
loop_
 _symmetry_equiv_pos_site_id
 _symmetry_equiv_pos_as_xyz
  1  'x, y, z'
loop_
 _atom_site_type_symbol
 _atom_site_label
 _atom_site_symmetry_multiplicity
 _atom_site_fract_x
 _atom_site_fract_y
 _atom_site_fract_z
 _atom_site_occupancy
 _atom_site_pbe_bader_charge
 _atom_site_pbe_bader_spin_density
 _atom_site_pbe_cm5_charge
 _atom_site_pbe_ddec_charge
 _atom_site_pbe_ddec_spin_density
 _atom_site_pbe_ddec_sum_bond_order
 _atom_site_pbe_magmom
Al  Al0  1  0.48670909  0.49953476  0.49724679  1  2.502393  0  0.391801  1.648907  0  2.571694  0
Al  Al1  1  0.98486151  0.50144273  0.50229583  1  2.502003  0  0.401503  1.636776  0  2.552909  0
H  H2  1  0.22265402  0.58104179  0.40677783  1  0.61158  0  0.336942  0.411835  0  0.894467  0
H  H3  1  0.73535894  0.42625806  0.59421733  1  0.609996  0  0.334547  0.408767  0  0.909348  0
H  H4  1  0.92111378  0.41982365  0.74319358  1  0.119915  0  0.097045  0.097896  0  1.08649  0
H  H5  1  0.86993967  0.41127071  0.89177522  1  0.091741  0  0.109819  0.116565  0  1.005109  0
H  H6  1  0.41214614  0.54953117  0.89147626  1  0.119447  0  0.113901  0.131174  0  0.99449  0
H  H7  1  0.57849041  0.56583223  0.09457438  1  0.10647  0  0.115619  0.134204  0  0.991183  0
H  H8  1  0.23034339  0.41253626  0.12273288  1  0.108597  0  0.110521  0.117929  0  1.001971  0
H  H9  1  0.14720984  0.42081972  0.27109461  1  0.114486  0  0.108398  0.11361  0  1.002187  0
H  H10  1  0.86050740  0.77134217  0.61179350  1  0.135173  0  0.124997  0.143822  0  1.007088  0
H  H11  1  0.63404888  0.23806904  0.59065821  1  0.165105  0  0.127834  0.138934  0  1.035909  0
H  H12  1  0.16576500  0.11100190  0.44320407  1  0.099742  0  0.115872  0.122191  0  0.972453  0
H  H13  1  0.29128892  0.87596345  0.44863717  1  0.10565  0  0.117543  0.125033  0  0.977937  0
C  C14  1  0.62206866  0.72685227  0.50843505  1  1.614156  0  0.268801  0.638297  0  4.101204  0
C  C15  1  0.78617175  0.50069236  0.35572776  1  1.614149  0  0.269623  0.658965  0  4.084996  0
C  C16  1  0.34098873  0.27285689  0.49830090  1  1.556829  0  0.267609  0.637777  0  4.099566  0
C  C17  1  0.19988490  0.49627250  0.64389993  1  1.592431  0  0.273742  0.6677  0  4.057318  0
C  C18  1  0.18917976  0.49210241  0.73258677  1  -0.017055  0  -0.011389  -0.097411  0  3.906008  0
C  C19  1  0.02526561  0.45014818  0.77636044  1  0.095903  0  -0.081122  -0.066005  0  3.996107  0
C  C20  1  0.99704681  0.44456710  0.85879850  1  -0.062085  0  -0.083599  -0.145107  0  3.944535  0
C  C21  1  0.13524367  0.48354821  0.90014472  1  0.34563  0  0.093924  0.19445  0  4.037203  0
C  C22  1  0.30526172  0.52073191  0.85845549  1  0.044421  0  -0.080507  -0.208197  0  3.915161  0
C  C23  1  0.33360676  0.52468333  0.77518200  1  0.045478  0  0.028525  0.152025  0  4.000711  0
C  C24  1  0.70226054  0.53447831  0.13390314  1  0.022879  0  -0.083796  -0.215171  0  3.925578  0
C  C25  1  0.90824592  0.48936497  0.10036908  1  0.37672  0  0.096158  0.199418  0  4.044065  0
C  C26  1  0.07100759  0.44794508  0.14961714  1  -0.032678  0  -0.083584  -0.152588  0  3.954792  0
C  C27  1  0.02406433  0.45299638  0.23150010  1  0.03111  0  -0.078607  -0.067203  0  3.98892  0
C  C28  1  0.81865356  0.50015775  0.26692266  1  -0.007543  0  -0.016032  -0.108701  0  3.92561  0
C  C29  1  0.65775193  0.54260683  0.21617750  1  0.019951  0  0.026137  0.1519  0  4.004784  0
C  C30  1  0.54705090  0.86636254  0.51466452  1  -0.070422  0  0.002564  -0.064404  0  3.89056  0
C  C31  1  0.64961647  0.93437182  0.55604427  1  0.021596  0  0.014596  0.08006  0  3.923511  0
C  C32  1  0.37207038  0.93038325  0.47704530  1  0.048888  0  -0.066405  -0.072483  0  3.949233  0
C  C33  1  0.80982200  0.87332475  0.60529291  1  0.077922  0  -0.06024  -0.135648  0  3.884189  0
C  C34  1  0.89645617  0.94190091  0.64782538  1  0.207181  0  0.085249  0.028339  0  3.966288  0
C  C35  1  0.40786080  0.13200854  0.50773952  1  0.036478  0  0.003841  -0.058267  0  3.906651  0
C  C36  1  0.30202863  0.06216247  0.47385942  1  -0.020297  0  -0.07163  -0.085793  0  3.97017  0
C  C37  1  0.57935988  0.06917232  0.55200325  1  -0.010375  0  0.013043  0.073397  0  3.925563  0
C  C38  1  0.67710705  0.13631678  0.59517408  1  0.102208  0  -0.057181  -0.123223  0  3.888466  0
C  C39  1  0.83227737  0.07456951  0.64162790  1  0.200584  0  0.084625  0.021095  0  3.962502  0
N  N40  1  0.11471778  0.48806891  0.98412329  1  -0.473112  0  -0.138293  -0.121964  0  3.239788  0
N  N41  1  0.93338488  0.48853955  0.01638392  1  -0.510952  0  -0.141376  -0.124787  0  3.267476  0
N  N42  1  0.03666773  0.87278563  0.70673569  1  0.399545  0  0.058195  0.521689  0  4.243855  0
N  N43  1  0.94005554  0.15154479  0.67691100  1  0.409962  0  0.063314  0.526833  0  4.208575  0
Cl  Cl44  1  0.54654990  0.57318746  0.73010309  1  -0.173345  0  0.039584  -0.021461  0  1.673421  0
Cl  Cl45  1  0.40023791  0.61305760  0.24919720  1  -0.194642  0  0.015085  -0.06093  0  1.536116  0
O  O46  1  0.48070440  0.67165843  0.50451836  1  -1.253725  0  -0.231001  -0.585403  0  2.372375  0
O  O47  1  0.94447287  0.49694627  0.39170964  1  -1.263288  0  -0.234607  -0.590668  0  2.338384  0
O  O48  1  0.14601439  0.32509356  0.50417042  1  -1.246044  0  -0.232523  -0.577412  0  2.315337  0
O  O49  1  0.37861065  0.48270573  0.60500891  1  -1.263876  0  -0.233481  -0.606092  0  2.438195  0
O  O50  1  0.48716708  0.32774060  0.48551840  1  -1.248442  0  -0.236305  -0.584212  0  2.360881  0
O  O51  1  0.03064388  0.51012964  0.61217296  1  -1.253084  0  -0.234643  -0.58948  0  2.318902  0
O  O52  1  0.81802076  0.67634480  0.50443465  1  -1.254409  0  -0.234873  -0.585384  0  2.332795  0
O  O53  1  0.60498970  0.50354236  0.38969406  1  -1.258142  0  -0.231688  -0.595411  0  2.415459  0
O  O54  1  0.21922192  0.55709564  0.46363367  1  -1.41729  0  -0.450744  -0.981705  0  2.187462  0
O  O55  1  0.74976164  0.44461148  0.53658021  1  -1.417104  0  -0.45215  -0.988509  0  2.187944  0
O  O56  1  0.17236255  0.77886120  0.68456163  1  -0.443336  0  -0.115917  -0.324576  0  2.003126  0
O  O57  1  0.00323336  0.91098040  0.77469602  1  -0.430983  0  -0.131701  -0.321355  0  1.866613  0
O  O58  1  0.83518591  0.25716563  0.69614769  1  -0.479742  0  -0.116108  -0.321473  0  1.958018  0
O  O59  1  0.12915105  0.10823882  0.68238580  1  -0.454351  0  -0.121457  -0.318568  0  1.912209  0
