# generated using pymatgen
data_Zr3H14C39N3O16
_symmetry_space_group_name_H-M   'P 1'
_cell_length_a   15.12752173
_cell_length_b   15.11390185
_cell_length_c   15.13082334
_cell_angle_alpha   90.66405951
_cell_angle_beta   90.42956836
_cell_angle_gamma   90.60471063
_symmetry_Int_Tables_number   1
_chemical_formula_structural   Zr3H14C39N3O16
_chemical_formula_sum   'Zr6 H28 C78 N6 O32'
_cell_volume   3458.92364140
_cell_formula_units_Z   2
loop_
 _symmetry_equiv_pos_site_id
 _symmetry_equiv_pos_as_xyz
  1  'x, y, z'
loop_
 _atom_site_type_symbol
 _atom_site_label
 _atom_site_symmetry_multiplicity
 _atom_site_fract_x
 _atom_site_fract_y
 _atom_site_fract_z
 _atom_site_occupancy
 _atom_site_pbe_bader_charge
 _atom_site_pbe_bader_spin_density
 _atom_site_pbe_cm5_charge
 _atom_site_pbe_ddec_charge
 _atom_site_pbe_ddec_spin_density
 _atom_site_pbe_ddec_sum_bond_order
 _atom_site_pbe_magmom
Zr  Zr0  1  0.16367451  0.02416069  0.22009096  1  2.616943  0  1.604846  2.324065  0  2.756631  0
Zr  Zr1  1  0.98003776  0.17081268  0.25682291  1  2.616056  0  1.604095  2.324175  0  2.75466  0
Zr  Zr2  1  0.09017028  0.99007399  0.00086586  1  2.628072  0  1.626623  2.37196  0  2.746219  0
Zr  Zr3  1  0.12751409  0.20778878  0.07376634  1  2.616806  0  1.603617  2.323583  0  2.754195  0
Zr  Zr4  1  0.94611692  0.95140521  0.18202726  1  2.629782  0  1.626917  2.372302  0  2.746347  0
Zr  Zr5  1  0.90825846  0.13338026  0.03901867  1  2.627973  0  1.626206  2.372617  0  2.745996  0
H  H6  1  0.41492679  0.85717177  0.85605734  1  0.111736  0  0.124811  0.150298  0  0.969948  0
H  H7  1  0.59314795  0.87939271  0.84306377  1  0.115025  0  0.113657  0.13384  0  1.006319  0
H  H8  1  0.61569902  0.30323681  0.36211110  1  0.103772  0  0.122354  0.146588  0  0.972928  0
H  H9  1  0.43644470  0.31295042  0.36343495  1  0.119591  0  0.107848  0.127011  0  1.029148  0
H  H10  1  0.76551536  0.45675127  0.90998016  1  0.116439  0  0.125006  0.150033  0  0.969878  0
H  H11  1  0.75136938  0.63501019  0.93237134  1  0.137451  0  0.113563  0.134021  0  1.00486  0
H  H12  1  0.26706352  0.66018212  0.35085730  1  0.100628  0  0.122525  0.146863  0  0.973197  0
H  H13  1  0.26817815  0.48072111  0.36022579  1  0.116001  0  0.10744  0.127147  0  1.031345  0
H  H14  1  0.81490230  0.80677317  0.50811437  1  0.116447  0  0.124634  0.149355  0  0.970924  0
H  H15  1  0.83615627  0.79486995  0.68639430  1  0.1103  0  0.113713  0.134069  0  1.005175  0
H  H16  1  0.25777756  0.31199348  0.70899541  1  0.113368  0  0.122418  0.146874  0  0.972893  0
H  H17  1  0.26724160  0.31294599  0.52969508  1  0.095978  0  0.107856  0.126975  0  1.029161  0
H  H18  1  0.16921741  0.21335577  0.26296003  1  0.607488  0  0.318925  0.412727  0  0.886297  0
H  H19  1  0.09992595  0.86323336  0.13814377  1  0.596524  0  0.336687  0.43355  0  0.84781  0
H  H20  1  0.04646340  0.14348156  0.91252838  1  0.63645  0  0.336794  0.434274  0  0.848139  0
H  H21  1  0.81957370  0.08916822  0.19252746  1  0.626641  0  0.336324  0.433728  0  0.847882  0
H  H22  1  0.57096143  0.94667567  0.51035937  1  0.101941  0  0.11141  0.118803  0  0.999564  0
H  H23  1  0.65587973  0.07697130  0.75229771  1  0.108857  0  0.114584  0.12903  0  0.990848  0
H  H24  1  0.51883873  0.16433151  0.75114891  1  0.078028  0  0.11314  0.122046  0  0.990122  0
H  H25  1  0.43489443  0.03329637  0.50962166  1  0.089805  0  0.112479  0.125169  0  1.002677  0
H  H26  1  0.90033190  0.46326115  0.66330651  1  0.109818  0  0.111643  0.11889  0  0.998095  0
H  H27  1  0.03417545  0.70247758  0.75110116  1  0.110816  0  0.115037  0.12917  0  0.98956  0
H  H28  1  0.12090797  0.70166839  0.61338900  1  0.065609  0  0.113149  0.122125  0  0.989097  0
H  H29  1  0.98633843  0.46287756  0.52635513  1  0.117611  0  0.113017  0.126403  0  1.000206  0
H  H30  1  0.65786074  0.70192252  0.12777686  1  0.089345  0  0.11471  0.128936  0  0.989547  0
H  H31  1  0.42031206  0.61209130  0.99312856  1  0.093784  0  0.111425  0.118609  0  0.998217  0
H  H32  1  0.41975184  0.47579798  0.07990577  1  0.100168  0  0.113293  0.12676  0  0.998798  0
H  H33  1  0.65690209  0.56478553  0.21513215  1  0.083204  0  0.113296  0.122516  0  0.989052  0
C  C34  1  0.45015108  0.77303596  0.96859079  1  0.422604  0  0.092609  0.14876  0  4.094427  0
C  C35  1  0.46602692  0.82376238  0.89320560  1  0.032698  0  -0.08412  -0.164414  0  3.94834  0
C  C36  1  0.55753228  0.83553781  0.88690182  1  -0.033732  0  -0.087194  -0.16596  0  3.962184  0
C  C37  1  0.59764327  0.79161809  0.95769149  1  0.378185  0  0.094321  0.159248  0  4.069331  0
C  C38  1  0.60489953  0.39589876  0.25137233  1  0.43009  0  0.089529  0.145824  0  4.099839  0
C  C39  1  0.57417832  0.34538236  0.32219714  1  -0.017722  0  -0.088557  -0.168961  0  3.963017  0
C  C40  1  0.48186793  0.35021150  0.32260360  1  0.004325  0  -0.095274  -0.17759  0  3.983089  0
C  C41  1  0.45622582  0.40527162  0.25335181  1  0.421677  0  0.094388  0.154125  0  4.075036  0
C  C42  1  0.87675811  0.49314053  0.82411377  1  0.427568  0  0.092658  0.148297  0  4.094151  0
C  C43  1  0.80187642  0.50827181  0.87606036  1  0.041952  0  -0.084209  -0.163631  0  3.946806  0
C  C44  1  0.79498704  0.59976983  0.88789872  1  -0.05763  0  -0.087267  -0.166152  0  3.961965  0
C  C45  1  0.86483577  0.64063233  0.84272979  1  0.363823  0  0.094336  0.157763  0  4.069478  0
C  C46  1  0.15706154  0.64917940  0.44466357  1  0.470082  0  0.090038  0.145336  0  4.09793  0
C  C47  1  0.22739103  0.61846891  0.39327815  1  0.033741  0  -0.089201  -0.168815  0  3.964097  0
C  C48  1  0.22761877  0.52608923  0.39793051  1  -0.02423  0  -0.094861  -0.178274  0  3.983897  0
C  C49  1  0.15874773  0.50036729  0.45371278  1  0.438741  0  0.094125  0.154698  0  4.075263  0
C  C50  1  0.72999817  0.91924434  0.54295277  1  0.446287  0  0.091402  0.145654  0  4.094608  0
C  C51  1  0.78106146  0.84413519  0.55905500  1  0.020524  0  -0.083649  -0.162416  0  3.949474  0
C  C52  1  0.79234555  0.83838352  0.65056784  1  -0.024974  0  -0.087756  -0.167449  0  3.963612  0
C  C53  1  0.74774271  0.90919140  0.69048493  1  0.426038  0  0.094537  0.159226  0  4.069478  0
C  C54  1  0.35159337  0.20207782  0.69759859  1  0.369429  0  0.089474  0.144708  0  4.100334  0
C  C55  1  0.30020493  0.27232020  0.66718459  1  -0.021379  0  -0.088984  -0.16937  0  3.964511  0
C  C56  1  0.30492447  0.27251594  0.57488849  1  0.057599  0  -0.095059  -0.177542  0  3.982778  0
C  C57  1  0.36069702  0.20370097  0.54893098  1  0.391858  0  0.094332  0.15454  0  4.074377  0
C  C58  1  0.25736087  0.88970428  0.08570676  1  1.653906  0  0.237917  0.705773  0  4.184094  0
C  C59  1  0.28545525  0.09617246  0.32585974  1  1.607549  0  0.202636  0.623332  0  4.28377  0
C  C60  1  0.23328542  0.32982563  0.14599107  1  1.613339  0  0.20213  0.624567  0  4.283058  0
C  C61  1  0.07346821  0.86043597  0.32332328  1  1.63015  0  0.24552  0.717529  0  4.162596  0
C  C62  1  0.81659772  0.27445353  0.16711069  1  1.653685  0  0.24578  0.717248  0  4.162425  0
C  C63  1  0.90146304  0.01806243  0.87238906  1  1.66065  0  0.228803  0.688382  0  4.214606  0
C  C64  1  0.05147702  0.27692328  0.37889148  1  1.629204  0  0.202494  0.62391  0  4.283293  0
C  C65  1  0.84558834  0.03629776  0.34978836  1  1.628751  0  0.237384  0.704695  0  4.186645  0
C  C66  1  0.97386709  0.82395342  0.99504919  1  1.653241  0  0.230002  0.69073  0  4.209967  0
C  C67  1  0.23144744  0.11790300  0.90979686  1  1.647145  0  0.245888  0.719449  0  4.162304  0
C  C68  1  0.99419299  0.30097229  0.93935513  1  1.643912  0  0.2374  0.704668  0  4.187248  0
C  C69  1  0.77983364  0.94572685  0.06661637  1  1.632263  0  0.228332  0.688286  0  4.216387  0
C  C70  1  0.29799112  0.13450232  0.84465713  1  0.05053  0  -0.037894  -0.176931  0  3.906442  0
C  C71  1  0.33492930  0.16133329  0.77837153  1  -0.23562  0  -0.019513  -0.049209  0  4.117029  0
C  C72  1  0.34380919  0.13956957  0.38947499  1  -0.038268  0  -0.039197  -0.171878  0  3.857274  0
C  C73  1  0.36357677  0.16876821  0.46294733  1  -0.167635  0  -0.008633  -0.033786  0  4.092868  0
C  C74  1  0.83022861  0.97492536  0.82522025  1  0.028833  0  -0.022542  -0.13635  0  3.899444  0
C  C75  1  0.77637837  0.94760876  0.77022077  1  -0.282573  0  -0.026294  -0.074666  0  4.087283  0
C  C76  1  0.77555150  0.01281255  0.40866458  1  0.100929  0  -0.044237  -0.184695  0  3.899474  0
C  C77  1  0.74076847  0.97140415  0.46836340  1  -0.323321  0  -0.017246  -0.043166  0  4.112884  0
C  C78  1  0.56086684  0.99588743  0.56230860  1  -0.015847  0  -0.085234  -0.149561  0  3.9863  0
C  C79  1  0.62484779  0.00739571  0.62953995  1  0.297411  0  0.097126  0.171252  0  4.003432  0
C  C80  1  0.60784359  0.06693957  0.69896442  1  -0.020991  0  -0.084148  -0.146306  0  3.954795  0
C  C81  1  0.52997584  0.11602343  0.69846883  1  -0.002849  0  -0.082994  -0.145951  0  3.961336  0
C  C82  1  0.46786402  0.10651018  0.62934181  1  0.297714  0  0.095724  0.169149  0  4.01163  0
C  C83  1  0.48345491  0.04445667  0.56204614  1  0.040873  0  -0.087224  -0.144505  0  3.980542  0
C  C84  1  0.11643056  0.73000739  0.42778541  1  0.128992  0  -0.020252  -0.050965  0  4.114335  0
C  C85  1  0.08963740  0.79592847  0.39035067  1  -0.369549  0  -0.037183  -0.174784  0  3.906198  0
C  C86  1  0.12399365  0.41430678  0.45690335  1  -0.548486  0  -0.008541  -0.032455  0  4.091479  0
C  C87  1  0.09479909  0.34068672  0.43730911  1  0.249449  0  -0.039635  -0.173607  0  3.856034  0
C  C88  1  0.92993120  0.77624744  0.92475234  1  -0.184672  0  -0.022783  -0.138561  0  3.900386  0
C  C89  1  0.90239729  0.72083086  0.87130329  1  -0.009097  0  -0.025113  -0.071245  0  4.086572  0
C  C90  1  0.92983393  0.41902904  0.83422658  1  -0.431714  0  -0.018187  -0.045483  0  4.111606  0
C  C91  1  0.97123888  0.35942571  0.86899207  1  0.179896  0  -0.042939  -0.182642  0  3.898045  0
C  C92  1  0.95016773  0.51463637  0.65353566  1  0.031901  0  -0.085479  -0.149174  0  3.985785  0
C  C93  1  0.96292302  0.58095297  0.71851908  1  0.267984  0  0.097321  0.171372  0  4.00505  0
C  C94  1  0.02321293  0.64985598  0.70223374  1  -0.002907  0  -0.084161  -0.145634  0  3.955315  0
C  C95  1  0.07193795  0.64953479  0.62403505  1  0.050158  0  -0.082523  -0.145949  0  3.961768  0
C  C96  1  0.06131723  0.58115557  0.56094254  1  0.263034  0  0.096133  0.169582  0  4.013042  0
C  C97  1  0.99838442  0.51454534  0.57576196  1  -0.036469  0  -0.086014  -0.14454  0  3.982375  0
C  C98  1  0.75164858  0.34119149  0.18362614  1  0.337299  0  -0.03757  -0.175163  0  3.906017  0
C  C99  1  0.68558106  0.37858527  0.21047452  1  -0.566398  0  -0.019651  -0.050398  0  4.116018  0
C  C100  1  0.29687175  0.38832899  0.18942131  1  0.262523  0  -0.039519  -0.173847  0  3.856594  0
C  C101  1  0.37034540  0.40807841  0.21852159  1  -0.494984  0  -0.00806  -0.031797  0  4.088844  0
C  C102  1  0.67715013  0.82103816  0.99579771  1  -0.290814  0  -0.025556  -0.073226  0  4.089485  0
C  C103  1  0.73215941  0.87492781  0.02323648  1  0.135977  0  -0.022959  -0.137559  0  3.901208  0
C  C104  1  0.37572538  0.78406671  0.02122494  1  -0.461406  0  -0.018372  -0.045937  0  4.112201  0
C  C105  1  0.31620276  0.81952948  0.06246401  1  0.220287  0  -0.043416  -0.182949  0  3.900338  0
C  C106  1  0.60554088  0.65277228  0.11683470  1  0.021852  0  -0.083533  -0.145255  0  3.955049  0
C  C107  1  0.53713445  0.66835579  0.05613337  1  0.317604  0  0.097286  0.172307  0  4.004096  0
C  C108  1  0.47125287  0.60296791  0.04329216  1  -0.018268  0  -0.08518  -0.149259  0  3.983825  0
C  C109  1  0.47105334  0.52556182  0.09191381  1  0.025729  0  -0.086047  -0.144401  0  3.980743  0
C  C110  1  0.53714165  0.51150312  0.15523826  1  0.286051  0  0.095727  0.168869  0  4.013937  0
C  C111  1  0.60514593  0.57492704  0.16589993  1  -0.007063  0  -0.082652  -0.146227  0  3.963488  0
N  N112  1  0.53122610  0.74592616  0.00374309  1  -1.175206  0  -0.207423  -0.0609  0  3.627116  0
N  N113  1  0.53258777  0.43680524  0.21164966  1  -1.169073  0  -0.207573  -0.055812  0  3.648289  0
N  N114  1  0.91094489  0.57461550  0.79647615  1  -1.142667  0  -0.207156  -0.059259  0  3.627375  0
N  N115  1  0.11740723  0.57675923  0.48582970  1  -1.164572  0  -0.207006  -0.05514  0  3.646592  0
N  N116  1  0.70230086  0.95477742  0.62390592  1  -1.159504  0  -0.206738  -0.058003  0  3.625736  0
N  N117  1  0.39286661  0.16253806  0.62509359  1  -1.175408  0  -0.20642  -0.053813  0  3.645983  0
O  O118  1  0.21200928  0.91609558  0.01957367  1  -1.153032  0  -0.358157  -0.607214  0  2.28433  0
O  O119  1  0.20912576  0.07297206  0.35521407  1  -1.123218  0  -0.341003  -0.567453  0  2.130888  0
O  O120  1  0.26257877  0.25345249  0.12275289  1  -1.118901  0  -0.340432  -0.566966  0  2.130161  0
O  O121  1  0.13784872  0.91384508  0.30989829  1  -1.156402  0  -0.35042  -0.602525  0  2.252185  0
O  O122  1  0.00066015  0.85707819  0.27962970  1  -1.157891  0  -0.352249  -0.613954  0  2.187851  0
O  O123  1  0.15216875  0.34822598  0.13273556  1  -1.139564  0  -0.335773  -0.56991  0  2.104509  0
O  O124  1  0.30388074  0.08303511  0.24464473  1  -1.13862  0  -0.336067  -0.569004  0  2.104558  0
O  O125  1  0.25487011  0.92177732  0.16420471  1  -1.16497  0  -0.350318  -0.609336  0  2.20116  0
O  O126  1  0.02959935  0.04489375  0.24455626  1  -1.206053  0  -0.779018  -1.13818  0  2.061138  0
O  O127  1  0.15204847  0.07368011  0.09428022  1  -1.205617  0  -0.779464  -1.137652  0  2.062717  0
O  O128  1  0.13193006  0.17594414  0.22537628  1  -1.254808  0  -0.655572  -1.041303  0  2.170607  0
O  O129  1  0.08328236  0.92507903  0.13782170  1  -1.227802  0  -0.696433  -1.085231  0  2.362253  0
O  O130  1  0.86979039  0.26102349  0.23139712  1  -1.153942  0  -0.34997  -0.602259  0  2.250008  0
O  O131  1  0.97644602  0.98224710  0.87699189  1  -1.153889  0  -0.312601  -0.588469  0  2.145655  0
O  O132  1  0.02862124  0.30619006  0.30262940  1  -1.119485  0  -0.34056  -0.566905  0  2.131025  0
O  O133  1  0.87223313  0.97020208  0.30410391  1  -1.155748  0  -0.35771  -0.606385  0  2.288686  0
O  O134  1  0.93889388  0.82914941  0.07061118  1  -1.150524  0  -0.316466  -0.592271  0  2.157388  0
O  O135  1  0.21816356  0.18207262  0.96355074  1  -1.15534  0  -0.349427  -0.602751  0  2.250516  0
O  O136  1  0.92785377  0.25581571  0.96607029  1  -1.153962  0  -0.357332  -0.605892  0  2.288871  0
O  O137  1  0.78526862  0.02095658  0.03120879  1  -1.152387  0  -0.314203  -0.59057  0  2.154541  0
O  O138  1  0.07263010  0.29869328  0.97130245  1  -1.154341  0  -0.351021  -0.60934  0  2.201835  0
O  O139  1  0.81315405  0.92541609  0.14275513  1  -1.169569  0  -0.392066  -0.641193  0  2.262355  0
O  O140  1  0.03809882  0.19569644  0.39714137  1  -1.135954  0  -0.336462  -0.569898  0  2.105879  0
O  O141  1  0.18793307  0.04474606  0.90657921  1  -1.156498  0  -0.353277  -0.615602  0  2.189192  0
O  O142  1  0.04995167  0.85742673  0.97410814  1  -1.166363  0  -0.392211  -0.640967  0  2.258393  0
O  O143  1  0.87743669  0.11494574  0.34765927  1  -1.163826  0  -0.350519  -0.60911  0  2.201399  0
O  O144  1  0.81383628  0.23099402  0.09394382  1  -1.167371  0  -0.352964  -0.614861  0  2.189356  0
O  O145  1  0.88176760  0.09453838  0.90613372  1  -1.162271  0  -0.393972  -0.643658  0  2.257291  0
O  O146  1  0.96867287  0.01208435  0.06098198  1  -1.208028  0  -0.784181  -1.154292  0  2.127109  0
O  O147  1  0.00147011  0.19556676  0.12294345  1  -1.204808  0  -0.778991  -1.138167  0  2.061214  0
O  O148  1  0.04575549  0.12683741  0.97428723  1  -1.270213  0  -0.695767  -1.08562  0  2.358334  0
O  O149  1  0.88138955  0.08882224  0.17580509  1  -1.258074  0  -0.695866  -1.08529  0  2.361511  0
