# generated using pymatgen
data_Zn4H52C76N16O13
_symmetry_space_group_name_H-M   'P 1'
_cell_length_a   14.82858924
_cell_length_b   18.72073079
_cell_length_c   22.29030480
_cell_angle_alpha   86.48098818
_cell_angle_beta   79.53052326
_cell_angle_gamma   75.78366529
_symmetry_Int_Tables_number   1
_chemical_formula_structural   Zn4H52C76N16O13
_chemical_formula_sum   'Zn8 H104 C152 N32 O26'
_cell_volume   5897.56139465
_cell_formula_units_Z   2
loop_
 _symmetry_equiv_pos_site_id
 _symmetry_equiv_pos_as_xyz
  1  'x, y, z'
loop_
 _atom_site_type_symbol
 _atom_site_label
 _atom_site_symmetry_multiplicity
 _atom_site_fract_x
 _atom_site_fract_y
 _atom_site_fract_z
 _atom_site_occupancy
 _atom_site_pbe_bader_charge
 _atom_site_pbe_bader_spin_density
 _atom_site_pbe_cm5_charge
 _atom_site_pbe_ddec_charge
 _atom_site_pbe_ddec_spin_density
 _atom_site_pbe_ddec_sum_bond_order
 _atom_site_pbe_magmom
Zn  Zn0  1  0.39824035  0.80272934  0.87131095  1  1.215586  0  0.716633  0.695418  0  2.511555  0
Zn  Zn1  1  0.60175861  0.19727114  0.12868875  1  1.215596  0  0.716641  0.69547  0  2.511522  0
Zn  Zn2  1  0.36052741  0.06427030  0.69571950  1  1.255514  0  0.700041  0.801949  0  2.347597  0
Zn  Zn3  1  0.63947241  0.93572962  0.30428057  1  1.255528  0  0.700059  0.802015  0  2.347576  0
Zn  Zn4  1  0.31062279  0.70337559  0.13224039  1  1.255337  0  0.701221  0.80003  0  2.368377  0
Zn  Zn5  1  0.68937737  0.29662544  0.86775869  1  1.255279  0  0.701196  0.799979  0  2.368424  0
Zn  Zn6  1  0.23823467  0.95578860  0.94919541  1  1.249566  0  0.728174  0.818339  0  2.400985  0
Zn  Zn7  1  0.76176344  0.04421243  0.05080347  1  1.249605  0  0.728183  0.818362  0  2.400973  0
H  H8  1  0.43196857  0.64095814  0.01370321  1  0.539562  0  0.297195  0.323835  0  1.011696  0
H  H9  1  0.56802713  0.35904178  0.98629691  1  0.539542  0  0.29712  0.323751  0  1.011756  0
H  H10  1  0.48221985  0.68680168  0.94879109  1  0.487626  0  0.30722  0.325038  0  0.957848  0
H  H11  1  0.51777585  0.31319825  0.05120858  1  0.487631  0  0.307299  0.325145  0  0.957796  0
H  H12  1  0.14536135  0.92294739  0.07796876  1  0.493021  0  0.299939  0.315854  0  0.972389  0
H  H13  1  0.85463676  0.07705363  0.92203191  1  0.493082  0  0.299947  0.315864  0  0.972366  0
H  H14  1  0.15797653  0.84445827  0.12810016  1  0.555318  0  0.291048  0.324296  0  1.016136  0
H  H15  1  0.84202278  0.15554331  0.87189989  1  0.555282  0  0.291025  0.324291  0  1.016131  0
H  H16  1  0.45850262  0.82793143  0.73868702  1  0.513299  0  0.29682  0.324461  0  0.980371  0
H  H17  1  0.54149703  0.17206905  0.26131259  1  0.513286  0  0.296806  0.324432  0  0.980405  0
H  H18  1  0.44450943  0.90325159  0.68699139  1  0.52344  0  0.292623  0.323912  0  1.007689  0
H  H19  1  0.55549021  0.09674888  0.31300868  1  0.523441  0  0.292623  0.323913  0  1.007686  0
H  H20  1  0.64366995  0.87393315  0.56161029  1  0.09825  0  0.106884  0.113012  0  0.99262  0
H  H21  1  0.35633141  0.12606622  0.43839052  1  0.098317  0  0.106889  0.112996  0  0.992647  0
H  H22  1  0.68054391  0.62702982  0.72668079  1  0.089941  0  0.107882  0.112384  0  0.987187  0
H  H23  1  0.31945488  0.37297120  0.27332204  1  0.089863  0  0.107873  0.112382  0  0.987222  0
H  H24  1  0.17956810  0.02469120  0.72996810  1  0.127442  0  0.120082  0.095157  0  0.994811  0
H  H25  1  0.82043394  0.97530817  0.27003218  1  0.127428  0  0.120093  0.095182  0  0.99482  0
H  H26  1  0.12795579  0.72829754  0.09253646  1  0.125013  0  0.120041  0.091617  0  1.003393  0
H  H27  1  0.87204505  0.27170128  0.90746444  1  0.124993  0  0.12004  0.091592  0  1.003376  0
H  H28  1  0.95404265  0.87631307  0.39601903  1  0.053963  0  0.098974  0.100722  0  1.034965  0
H  H29  1  0.04595922  0.12368685  0.60398079  1  0.053933  0  0.098989  0.100758  0  1.034874  0
H  H30  1  0.22907742  0.12236351  0.81528771  1  0.520238  0  0.290483  0.313306  0  1.015239  0
H  H31  1  0.77092360  0.87763696  0.18471309  1  0.520222  0  0.290495  0.313352  0  1.015132  0
H  H32  1  0.23385810  0.09758062  0.89137795  1  0.45357  0  0.296566  0.302241  0  0.983935  0
H  H33  1  0.76614309  0.90241930  0.10862286  1  0.453568  0  0.296568  0.302261  0  0.983951  0
H  H34  1  0.85598352  0.57728209  0.71270177  1  0.081935  0  0.107754  0.112183  0  0.996896  0
H  H35  1  0.14401424  0.42271783  0.28729989  1  0.081925  0  0.107757  0.112165  0  0.996848  0
H  H36  1  0.12108887  0.88010715  0.96000909  1  0.590431  0  0.315038  0.38417  0  0.908998  0
H  H37  1  0.87891094  0.11989278  0.03998740  1  0.590385  0  0.315101  0.384328  0  0.908784  0
H  H38  1  0.04593077  0.94687338  0.93937116  1  0.647487  0  0.297562  0.409421  0  0.913077  0
H  H39  1  0.95406888  0.05312710  0.06062621  1  0.647513  0  0.297565  0.409471  0  0.913008  0
H  H40  1  0.00353138  0.83980844  0.28618293  1  0.106429  0  0.104117  0.114752  0  1.012898  0
H  H41  1  0.99646912  0.16019149  0.71381706  1  0.10642  0  0.104114  0.114746  0  1.012894  0
H  H42  1  0.82013086  0.84538270  0.52940703  1  0.08066  0  0.105006  0.10826  0  1.002732  0
H  H43  1  0.17987068  0.15461833  0.47059188  1  0.080689  0  0.104999  0.108243  0  1.002771  0
H  H44  1  0.20174186  0.46189495  0.13631175  1  0.11332  0  0.111052  0.119164  0  1.022483  0
H  H45  1  0.79825949  0.53810441  0.86368996  1  0.113371  0  0.110994  0.119069  0  1.022481  0
H  H46  1  0.07466678  0.96601865  0.68474033  1  0.079274  0  0.110837  0.117882  0  0.995136  0
H  H47  1  0.92533526  0.03398072  0.31525995  1  0.079232  0  0.110827  0.117845  0  0.995155  0
H  H48  1  0.29620747  0.57113437  0.82637875  1  0.109329  0  0.111119  0.118675  0  1.029576  0
H  H49  1  0.70379441  0.42886555  0.17362062  1  0.109349  0  0.111126  0.118701  0  1.02958  0
H  H50  1  0.02132886  0.65552295  0.06657807  1  0.103333  0  0.109098  0.116455  0  1.016024  0
H  H51  1  0.97867249  0.34447642  0.93342229  1  0.103779  0  0.109079  0.116383  0  1.016057  0
H  H52  1  0.24246301  0.79934865  0.42319310  1  0.040625  0  0.102199  0.102114  0  1.001598  0
H  H53  1  0.75753783  0.20065017  0.57680690  1  0.0407  0  0.102212  0.102097  0  1.001576  0
H  H54  1  0.15211235  0.40868843  0.06165364  1  0.107573  0  0.108448  0.116564  0  1.016765  0
H  H55  1  0.84788747  0.59131149  0.93834733  1  0.10757  0  0.108438  0.116563  0  1.016771  0
H  H56  1  0.30470632  0.54231478  0.15466103  1  0.085205  0  0.126719  0.099819  0  0.974655  0
H  H57  1  0.69529435  0.45768459  0.84533852  1  0.084974  0  0.126728  0.099834  0  0.974652  0
H  H58  1  0.91265911  0.59216415  0.10759259  1  0.098141  0  0.107583  0.114123  0  1.021252  0
H  H59  1  0.08734087  0.40783522  0.89240704  1  0.098127  0  0.107577  0.114106  0  1.021243  0
H  H60  1  0.36023324  0.02473258  0.56488267  1  0.120595  0  0.126671  0.100301  0  0.974964  0
H  H61  1  0.63976778  0.97526790  0.43511634  1  0.120656  0  0.126639  0.100269  0  0.974976  0
H  H62  1  0.69329496  0.75824781  0.87516417  1  0.091258  0  0.104268  0.110855  0  0.995342  0
H  H63  1  0.30670589  0.24175322  0.12483662  1  0.091296  0  0.104205  0.110697  0  0.99525  0
H  H64  1  0.20296727  0.88414729  0.48851549  1  0.074988  0  0.105773  0.112739  0  1.029002  0
H  H65  1  0.79703408  0.11585208  0.51148442  1  0.075017  0  0.105768  0.112733  0  1.029005  0
H  H66  1  0.86791548  0.71683714  0.85635788  1  0.064479  0  0.09384  0.091915  0  1.048691  0
H  H67  1  0.13208485  0.28316333  0.14364300  1  0.064501  0  0.093855  0.091943  0  1.048692  0
H  H68  1  0.82740806  0.03720979  0.62428729  1  0.076925  0  0.096572  0.095346  0  1.042812  0
H  H69  1  0.17259246  0.96279234  0.37571303  1  0.076976  0  0.096594  0.095409  0  1.042792  0
H  H70  1  0.23093157  0.84094664  0.80883862  1  0.081314  0  0.119937  0.090617  0  0.994376  0
H  H71  1  0.76906789  0.15905218  0.19116110  1  0.081291  0  0.11993  0.090634  0  0.994347  0
H  H72  1  0.26000795  0.97208117  0.51120719  1  0.09446  0  0.109454  0.116127  0  1.033286  0
H  H73  1  0.73999016  0.02792206  0.48879247  1  0.094476  0  0.109479  0.116164  0  1.03326  0
H  H74  1  0.96889925  0.97818062  0.62788292  1  0.059867  0  0.105486  0.112009  0  1.02836  0
H  H75  1  0.03110125  0.02181931  0.37211617  1  0.059878  0  0.105485  0.112042  0  1.028327  0
H  H76  1  0.00887994  0.71511898  0.79892053  1  0.040114  0  0.103818  0.111696  0  1.025081  0
H  H77  1  0.99112056  0.28488094  0.20108036  1  0.040105  0  0.103823  0.111707  0  1.025085  0
H  H78  1  0.24272236  0.52663250  0.75583051  1  0.0833  0  0.105649  0.112133  0  1.026798  0
H  H79  1  0.75727796  0.47336577  0.24417048  1  0.083328  0  0.105638  0.112146  0  1.026785  0
H  H80  1  0.59388346  0.64097418  0.16696079  1  0.106938  0  0.109984  0.120391  0  0.989552  0
H  H81  1  0.40611568  0.35902796  0.83303701  1  0.106894  0  0.109948  0.120354  0  0.989594  0
H  H82  1  0.59532965  0.48858219  0.02988610  1  0.123766  0  0.104955  0.122045  0  1.013324  0
H  H83  1  0.40467051  0.51141883  0.97011253  1  0.12379  0  0.104978  0.122074  0  1.013303  0
H  H84  1  0.65289869  0.06652036  0.65309747  1  0.115721  0  0.106326  0.114683  0  0.996765  0
H  H85  1  0.34710164  0.93348011  0.34690341  1  0.115754  0  0.106334  0.114676  0  0.996743  0
H  H86  1  0.12426291  0.77761656  0.76987932  1  0.07796  0  0.1159  0.125163  0  0.984038  0
H  H87  1  0.87573467  0.22238171  0.23012200  1  0.078336  0  0.1159  0.12517  0  0.983987  0
H  H88  1  0.77104900  0.44386325  0.02074082  1  0.084714  0  0.097814  0.099421  0  1.033741  0
H  H89  1  0.22895082  0.55613667  0.97925880  1  0.084746  0  0.09782  0.099427  0  1.033674  0
H  H90  1  0.96371486  0.15826134  0.08897309  1  0.083808  0  0.10063  0.095446  0  1.060709  0
H  H91  1  0.03628546  0.84173692  0.91102700  1  0.083837  0  0.100636  0.095508  0  1.060638  0
H  H92  1  0.91336396  0.29465022  0.09558953  1  0.119717  0  0.098006  0.097148  0  1.054625  0
H  H93  1  0.08663602  0.70534915  0.90441145  1  0.119722  0  0.098019  0.09719  0  1.054593  0
H  H94  1  0.18365714  0.31164659  0.99391106  1  0.049938  0  0.10672  0.111087  0  0.994973  0
H  H95  1  0.81634062  0.68835334  0.00608881  1  0.050025  0  0.106704  0.11106  0  0.994968  0
H  H96  1  0.99900389  0.41392036  0.77538470  1  0.093301  0  0.097246  0.097444  0  1.035913  0
H  H97  1  0.00099643  0.58607791  0.22461539  1  0.093265  0  0.09725  0.097482  0  1.035846  0
H  H98  1  0.39641214  0.64274343  0.86093710  1  0.120489  0  0.125045  0.093639  0  0.982329  0
H  H99  1  0.60359008  0.35725760  0.13906173  1  0.120505  0  0.125071  0.093693  0  0.982358  0
H  H100  1  0.29063250  0.76296571  0.31465579  1  0.145191  0  0.107976  0.116056  0  0.993106  0
H  H101  1  0.70936766  0.23703531  0.68534463  1  0.145205  0  0.107972  0.116048  0  0.993105  0
H  H102  1  0.76850874  0.59935949  0.15649064  1  0.071258  0  0.098197  0.098579  0  1.034271  0
H  H103  1  0.23149091  0.40064098  0.84350943  1  0.071215  0  0.098187  0.098564  0  1.034295  0
H  H104  1  0.22842155  0.17647396  0.97974260  1  0.091945  0  0.111151  0.117713  0  0.990814  0
H  H105  1  0.77157895  0.82352596  0.02025739  1  0.091941  0  0.111159  0.117705  0  0.99084  0
H  H106  1  0.27821823  0.43573215  0.69483007  1  0.064665  0  0.101298  0.100535  0  1.000713  0
H  H107  1  0.72178107  0.56426722  0.30517054  1  0.064613  0  0.101295  0.10053  0  1.000682  0
H  H108  1  0.05510578  0.27634593  0.76710302  1  0.132084  0  0.104999  0.114034  0  1.005926  0
H  H109  1  0.94489437  0.72365289  0.23289707  1  0.132139  0  0.104995  0.114016  0  1.005968  0
H  H110  1  0.33213394  0.29960542  0.68557395  1  0.099628  0  0.109221  0.117145  0  0.990619  0
H  H111  1  0.66786621  0.70039340  0.31442613  1  0.099629  0  0.109238  0.117186  0  0.990575  0
C  C112  1  0.36742881  0.75094584  0.00039750  1  1.577882  0  0.324694  0.555639  0  4.150296  0
C  C113  1  0.63256724  0.24905519  0.99960252  1  1.577978  0  0.324733  0.555671  0  4.150314  0
C  C114  1  0.53309667  0.98743083  0.62826804  1  1.560395  0  0.201223  0.562463  0  4.23166  0
C  C115  1  0.46690400  0.01256854  0.37173285  1  1.56041  0  0.201182  0.562366  0  4.2316  0
C  C116  1  0.38328509  0.92537764  0.77662595  1  1.558896  0  0.325708  0.546985  0  4.155393  0
C  C117  1  0.61671593  0.07462284  0.22337395  1  1.558903  0  0.325763  0.547143  0  4.155203  0
C  C118  1  0.68536138  0.90930108  0.57436941  1  0.060923  0  -0.083252  -0.093053  0  3.978261  0
C  C119  1  0.31463878  0.09069774  0.42563158  1  0.060603  0  -0.083281  -0.093105  0  3.97836  0
C  C120  1  0.72227898  0.64471241  0.75588531  1  -0.022022  0  -0.080839  -0.093334  0  3.974706  0
C  C121  1  0.27771981  0.35528861  0.24411663  1  -0.021969  0  -0.080866  -0.093335  0  3.974747  0
C  C122  1  0.57117421  0.72570041  0.81042109  1  1.534973  0  0.201784  0.565579  0  4.213017  0
C  C123  1  0.42882784  0.27430116  0.18957818  1  1.534951  0  0.201724  0.565458  0  4.213257  0
C  C124  1  0.23175102  0.19768728  0.72539535  1  1.537168  0  0.202715  0.56266  0  4.220481  0
C  C125  1  0.76825085  0.80231264  0.27460537  1  1.537173  0  0.202654  0.562598  0  4.220584  0
C  C126  1  0.19533594  0.01022850  0.68195380  1  0.472301  0  0.049509  0.099828  0  3.954343  0
C  C127  1  0.80466507  0.98977197  0.31804520  1  0.472285  0  0.049477  0.099687  0  3.954324  0
C  C128  1  0.14220647  0.66889204  0.10038922  1  0.460215  0  0.051566  0.104281  0  3.938409  0
C  C129  1  0.85779506  0.33110678  0.89961159  1  0.460174  0  0.051542  0.104277  0  3.938356  0
C  C130  1  0.02764557  0.85168268  0.37757491  1  -0.027769  0  -0.089099  -0.118777  0  3.973086  0
C  C131  1  0.97235510  0.14831669  0.62242509  1  -0.028194  0  -0.089146  -0.118861  0  3.973119  0
C  C132  1  0.81991217  0.61809846  0.74734438  1  -0.031866  0  -0.08508  -0.117021  0  3.970923  0
C  C133  1  0.18008662  0.38190256  0.25265532  1  -0.031876  0  -0.085124  -0.117056  0  3.97077  0
C  C134  1  0.15053786  0.80068182  0.29370091  1  -0.06394  0  -0.019846  -0.032218  0  3.97442  0
C  C135  1  0.84946316  0.19931865  0.70629854  1  -0.063946  0  -0.019874  -0.032216  0  3.974398  0
C  C136  1  0.25282156  0.83532285  0.04681053  1  1.568845  0  0.321656  0.543382  0  4.185506  0
C  C137  1  0.74717689  0.16467928  0.95318960  1  1.568721  0  0.321664  0.54347  0  4.185358  0
C  C138  1  0.09462148  0.84239923  0.41651159  1  -0.027839  0  -0.007797  0.034397  0  3.992567  0
C  C139  1  0.90538038  0.15759848  0.58348924  1  -0.027462  0  -0.007756  0.03433  0  3.992771  0
C  C140  1  0.67597778  0.69493138  0.80231543  1  -0.019381  0  -0.015709  -0.022942  0  3.966918  0
C  C141  1  0.32402153  0.30507019  0.19768552  1  -0.018817  0  -0.015702  -0.022987  0  3.966991  0
C  C142  1  0.15830917  0.96300346  0.59343481  1  -0.004749  0  0.019044  0.117097  0  3.96316  0
C  C143  1  0.84168843  0.03699922  0.40656540  1  -0.004765  0  0.019026  0.117031  0  3.96322  0
C  C144  1  0.63811039  0.97210431  0.60869886  1  -0.06112  0  -0.018772  -0.03258  0  3.973515  0
C  C145  1  0.36189164  0.02789285  0.39130377  1  -0.060711  0  -0.018751  -0.032546  0  3.973444  0
C  C146  1  0.05514654  0.83153841  0.31672794  1  0.016391  0  -0.085867  -0.096971  0  3.969451  0
C  C147  1  0.94485396  0.16846151  0.68327250  1  0.016392  0  -0.08586  -0.096936  0  3.96942  0
C  C148  1  0.78299257  0.89305416  0.55726464  1  -0.114044  0  -0.086146  -0.117012  0  3.982184  0
C  C149  1  0.21700793  0.10694576  0.44273535  1  -0.114104  0  -0.086133  -0.116939  0  3.982304  0
C  C150  1  0.18366346  0.52035211  0.12437532  1  0.000912  0  -0.072722  -0.161165  0  3.909326  0
C  C151  1  0.81633652  0.47964726  0.87562656  1  0.001192  0  -0.072676  -0.161056  0  3.909151  0
C  C152  1  0.13688560  0.97834715  0.65601306  1  -0.0586  0  -0.080506  -0.176372  0  3.954843  0
C  C153  1  0.86311610  0.02165332  0.34398676  1  -0.058581  0  -0.080448  -0.176192  0  3.954756  0
C  C154  1  0.27942965  0.63077473  0.82023101  1  0.040175  0  -0.073133  -0.158263  0  3.902531  0
C  C155  1  0.72057222  0.36922520  0.17976836  1  0.039999  0  -0.07311  -0.158335  0  3.90257  0
C  C156  1  0.08232536  0.62798783  0.08708663  1  -0.008707  0  -0.076351  -0.1627  0  3.925774  0
C  C157  1  0.91767531  0.37201154  0.91291426  1  -0.009203  0  -0.076326  -0.162612  0  3.925856  0
C  C158  1  0.30831593  0.02116714  0.83056514  1  1.523459  0  0.322783  0.5458  0  4.152273  0
C  C159  1  0.69168577  0.97883334  0.16943468  1  1.523469  0  0.322766  0.545865  0  4.152372  0
C  C160  1  0.01350847  0.39209656  0.05828559  1  0.559862  0  0.116302  0.198965  0  4.052121  0
C  C161  1  0.98649014  0.60790281  0.94171466  1  0.559603  0  0.116252  0.198868  0  4.052109  0
C  C162  1  0.04474189  0.31227829  0.04605197  1  -0.057203  0  -0.003613  0.041748  0  3.997205  0
C  C163  1  0.95525724  0.68772163  0.95394819  1  -0.057178  0  -0.0036  0.041824  0  3.997216  0
C  C164  1  0.18951679  0.80916285  0.39356499  1  -0.069713  0  -0.090653  -0.128781  0  3.99723  0
C  C165  1  0.81048490  0.19083542  0.60643449  1  -0.069767  0  -0.090676  -0.128702  0  3.997299  0
C  C166  1  0.07661307  0.43339955  0.06737689  1  -0.037937  0  -0.080794  -0.210026  0  3.900735  0
C  C167  1  0.92338691  0.56659982  0.93262229  1  -0.037666  0  -0.080737  -0.20994  0  3.900683  0
C  C168  1  0.87405119  0.64428771  0.78273582  1  -0.029054  0  -0.008001  0.037018  0  3.988217  0
C  C169  1  0.12594794  0.35571222  0.21726433  1  -0.029095  0  -0.007992  0.03701  0  3.988216  0
C  C170  1  0.24048651  0.56503258  0.13595639  1  0.506034  0  0.059232  0.115126  0  3.931542  0
C  C171  1  0.75951347  0.43496679  0.86404504  1  0.505948  0  0.059261  0.115124  0  3.931476  0
C  C172  1  0.97779483  0.61508920  0.77363588  1  0.526197  0  0.122669  0.218026  0  4.021267  0
C  C173  1  0.02220464  0.38490961  0.22636563  1  0.526188  0  0.122612  0.217944  0  4.021432  0
C  C174  1  0.10281936  0.55175883  0.09884720  1  -0.013454  0  0.019773  0.111079  0  3.967005  0
C  C175  1  0.89718079  0.44823999  0.90115423  1  -0.01355  0  0.019802  0.111126  0  3.967012  0
C  C176  1  0.18105881  0.78172672  0.22765197  1  1.54779  0  0.20668  0.569936  0  4.214217  0
C  C177  1  0.81894203  0.21827210  0.77234759  1  1.547752  0  0.206712  0.569924  0  4.214298  0
C  C178  1  0.06447138  0.87327502  0.47850409  1  0.57127  0  0.119755  0.211322  0  4.031335  0
C  C179  1  0.93552929  0.12672436  0.52149591  1  0.57125  0  0.119745  0.211362  0  4.031459  0
C  C180  1  0.94307054  0.53576904  0.09255757  1  -0.038367  0  -0.080187  -0.207551  0  3.889797  0
C  C181  1  0.05693065  0.46423088  0.90744099  1  -0.038408  0  -0.080101  -0.207403  0  3.889931  0
C  C182  1  0.13521592  0.62702770  0.77816326  1  -0.051019  0  0.001894  0.104516  0  4.010052  0
C  C183  1  0.86478525  0.37297001  0.22183855  1  -0.050873  0  0.00194  0.104542  0  4.010164  0
C  C184  1  0.29575741  0.01156729  0.58953472  1  0.493336  0  0.060966  0.118555  0  3.927833  0
C  C185  1  0.70424174  0.98843704  0.41046432  1  0.493379  0  0.060955  0.118568  0  3.927916  0
C  C186  1  0.72946034  0.71964601  0.83883768  1  0.036888  0  -0.088409  -0.100729  0  3.984354  0
C  C187  1  0.27053983  0.28035502  0.16116319  1  0.03643  0  -0.088346  -0.100508  0  3.984152  0
C  C188  1  0.12854363  0.89469160  0.50868465  1  -0.006788  0  -0.084275  -0.216196  0  3.908091  0
C  C189  1  0.87145756  0.10530832  0.49131615  1  -0.006792  0  -0.084267  -0.216225  0  3.908143  0
C  C190  1  0.82757771  0.69615041  0.82800539  1  -0.135291  0  -0.096029  -0.134102  0  3.995355  0
C  C191  1  0.17242229  0.30385117  0.17199413  1  -0.135271  0  -0.096011  -0.134087  0  3.995363  0
C  C192  1  0.78822256  0.00047926  0.61069014  1  -0.060781  0  -0.095552  -0.138349  0  3.998771  0
C  C193  1  0.21177743  0.99952232  0.38930938  1  -0.060763  0  -0.095563  -0.138404  0  3.998719  0
C  C194  1  0.24236705  0.78106197  0.81155861  1  0.511691  0  0.052781  0.100645  0  3.937959  0
C  C195  1  0.75763208  0.21893796  0.18844065  1  0.51156  0  0.05274  0.100525  0  3.937928  0
C  C196  1  0.09513101  0.93312493  0.56324968  1  -0.099975  0  0.002894  0.106381  0  4.013411  0
C  C197  1  0.90486847  0.06687609  0.43675038  1  -0.099955  0  0.002888  0.106492  0  4.013195  0
C  C198  1  0.24010778  0.98054877  0.56015355  1  0.036771  0  -0.073409  -0.1593  0  3.907283  0
C  C199  1  0.75989135  0.01945336  0.43984560  1  0.036736  0  -0.07337  -0.159293  0  3.907434  0
C  C200  1  0.83570688  0.93839226  0.57534003  1  -0.035892  0  -0.00942  0.034084  0  3.996669  0
C  C201  1  0.16429363  0.06160987  0.42465895  1  -0.03587  0  -0.009458  0.033955  0  3.996706  0
C  C202  1  0.99843867  0.94671996  0.58647205  1  0.005887  0  -0.087045  -0.218226  0  3.908746  0
C  C203  1  0.00156149  0.05328107  0.41352747  1  0.005871  0  -0.087051  -0.2184  0  3.908633  0
C  C204  1  0.04053178  0.50662323  0.08565867  1  -0.090574  0  0.009889  0.117626  0  3.986048  0
C  C205  1  0.95946889  0.49337614  0.91434178  1  -0.090601  0  0.00983  0.117529  0  3.986145  0
C  C206  1  0.03811453  0.65848631  0.78418519  1  0.054749  0  -0.085681  -0.217482  0  3.90229  0
C  C207  1  0.96188614  0.34151306  0.21581481  1  0.054683  0  -0.085704  -0.217508  0  3.902492  0
C  C208  1  0.16802914  0.55359844  0.76017020  1  -0.091023  0  -0.082814  -0.214815  0  3.908039  0
C  C209  1  0.83197135  0.44639927  0.23983124  1  -0.090806  0  -0.082801  -0.214773  0  3.907926  0
C  C210  1  0.78157391  0.51904310  0.08711266  1  -0.052794  0  -0.011179  0.02613  0  4.010561  0
C  C211  1  0.21842812  0.48095406  0.91288863  1  -0.05254  0  -0.011259  0.025992  0  4.01058  0
C  C212  1  0.93892801  0.92244682  0.55433957  1  0.535791  0  0.120962  0.218378  0  4.030969  0
C  C213  1  0.06107234  0.07755587  0.44565806  1  0.535728  0  0.120916  0.218433  0  4.03089  0
C  C214  1  0.63356456  0.59804171  0.13488850  1  -0.02493  0  -0.084184  -0.091206  0  3.975678  0
C  C215  1  0.36643577  0.40195877  0.86510969  1  -0.024821  0  -0.084175  -0.091243  0  3.975782  0
C  C216  1  0.58437152  0.56655617  0.09974273  1  -0.012156  0  -0.021506  -0.034016  0  3.973623  0
C  C217  1  0.41562985  0.43344540  0.90025573  1  -0.012149  0  -0.021503  -0.033958  0  3.973558  0
C  C218  1  0.63416155  0.51135911  0.05803359  1  -0.105761  0  -0.085266  -0.096013  0  3.95913  0
C  C219  1  0.36583758  0.48864081  0.94196522  1  -0.105753  0  -0.085263  -0.096022  0  3.959074  0
C  C220  1  0.69026053  0.01772645  0.62661397  1  -0.047833  0  -0.085881  -0.093847  0  3.983423  0
C  C221  1  0.30973946  0.98227292  0.37338701  1  -0.048043  0  -0.085854  -0.093766  0  3.983314  0
C  C222  1  0.88486613  0.49125745  0.08117606  1  0.556724  0  0.119215  0.214502  0  4.035618  0
C  C223  1  0.11513402  0.50874137  0.91882493  1  0.556445  0  0.119182  0.214465  0  4.03573  0
C  C224  1  0.18317761  0.74516675  0.79020703  1  -0.043699  0  -0.077626  -0.169834  0  3.93214  0
C  C225  1  0.81682254  0.25483208  0.20979171  1  -0.044055  0  -0.077604  -0.169766  0  3.932085  0
C  C226  1  0.20005918  0.66798204  0.79508080  1  0.028056  0  0.023667  0.119275  0  3.948237  0
C  C227  1  0.79994199  0.33201568  0.20492012  1  0.027956  0  0.023669  0.119311  0  3.948271  0
C  C228  1  0.19738029  0.27999666  0.72677151  1  -0.018324  0  -0.017102  -0.025628  0  3.9591  0
C  C229  1  0.80262107  0.72000271  0.27322841  1  -0.018835  0  -0.017142  -0.02563  0  3.959047  0
C  C230  1  0.47984971  0.59471784  0.10302515  1  1.54676  0  0.200981  0.554042  0  4.246584  0
C  C231  1  0.52015165  0.40528374  0.89697241  1  1.546751  0  0.200973  0.553979  0  4.24676  0
C  C232  1  0.13514463  0.43390189  0.73775665  1  0.019639  0  -0.008965  0.030752  0  3.996189  0
C  C233  1  0.86485552  0.56609693  0.26224389  1  0.019627  0  -0.00896  0.030782  0  3.996233  0
C  C234  1  0.10350238  0.51369604  0.75026303  1  0.553515  0  0.120318  0.216981  0  4.026844  0
C  C235  1  0.89649640  0.48630278  0.24973857  1  0.553321  0  0.120285  0.216856  0  4.026829  0
C  C236  1  0.73175555  0.48741831  0.05228282  1  0.002204  0  -0.09177  -0.121237  0  3.983729  0
C  C237  1  0.26824477  0.51257997  0.94771682  1  0.002183  0  -0.091745  -0.121177  0  3.983677  0
C  C238  1  0.01026710  0.19195143  0.06583859  1  0.034103  0  -0.094735  -0.109991  0  4.007529  0
C  C239  1  0.98973151  0.80804794  0.93416255  1  0.034054  0  -0.094764  -0.110091  0  4.007647  0
C  C240  1  0.98280320  0.26797425  0.07109485  1  -0.166793  0  -0.089082  -0.121746  0  3.986276  0
C  C241  1  0.01719679  0.73202512  0.92890523  1  -0.166732  0  -0.089038  -0.121753  0  3.986327  0
C  C242  1  0.13420221  0.27847739  0.01381214  1  0.013071  0  -0.085229  -0.126502  0  3.96638  0
C  C243  1  0.86579692  0.72152253  0.98618756  1  0.012923  0  -0.085212  -0.126477  0  3.966397  0
C  C244  1  0.09804992  0.15822694  0.03168807  1  0.006845  0  -0.021803  -0.042139  0  3.977784  0
C  C245  1  0.90195023  0.84177188  0.96831202  1  0.006931  0  -0.021831  -0.042129  0  3.977801  0
C  C246  1  0.07207588  0.38835623  0.75624808  1  -0.05133  0  -0.089165  -0.117398  0  3.974965  0
C  C247  1  0.92792444  0.61164204  0.24375202  1  -0.05134  0  -0.089145  -0.117378  0  3.975008  0
C  C248  1  0.33533436  0.67055571  0.84045188  1  0.381358  0  0.056422  0.109762  0  3.926318  0
C  C249  1  0.66466614  0.32944422  0.15954722  1  0.381128  0  0.056371  0.109703  0  3.926406  0
C  C250  1  0.21711678  0.78837179  0.33288961  1  -0.074895  0  -0.083876  -0.089622  0  3.979082  0
C  C251  1  0.78288474  0.21162703  0.66710942  1  -0.074848  0  -0.083906  -0.08969  0  3.979065  0
C  C252  1  0.73146109  0.57499934  0.12823876  1  -0.085584  0  -0.09322  -0.136724  0  3.997699  0
C  C253  1  0.26853854  0.42499893  0.87176142  1  -0.085601  0  -0.09318  -0.136654  0  3.997706  0
C  C254  1  0.15973909  0.20244226  0.00578380  1  -0.08236  0  -0.078934  -0.08036  0  3.952355  0
C  C255  1  0.84025952  0.79755712  0.99421600  1  -0.082373  0  -0.078942  -0.080365  0  3.952369  0
C  C256  1  0.22887506  0.40137429  0.71145575  1  -0.031285  0  -0.090799  -0.129162  0  3.99563  0
C  C257  1  0.77112440  0.59862453  0.28854442  1  -0.031278  0  -0.090805  -0.129169  0  3.9955  0
C  C258  1  0.10300793  0.31217695  0.75139764  1  -0.099734  0  -0.083777  -0.092285  0  3.963893  0
C  C259  1  0.89699307  0.68782132  0.24860326  1  -0.099207  0  -0.083765  -0.092307  0  3.964009  0
C  C260  1  0.25954945  0.32528536  0.70572396  1  -0.068061  0  -0.082828  -0.089662  0  3.972922  0
C  C261  1  0.74045036  0.67471456  0.29427746  1  -0.06805  0  -0.082833  -0.089705  0  3.97283  0
C  C262  1  0.12401314  0.07677630  0.02123138  1  1.544577  0  0.21534  0.581584  0  4.191391  0
C  C263  1  0.87598736  0.92322363  0.97876816  1  1.544426  0  0.215298  0.581453  0  4.19144  0
N  N264  1  0.34956167  0.00043695  0.77236485  1  -1.246473  0  -0.371357  -0.526957  0  3.365944  0
N  N265  1  0.65044037  0.99956242  0.22763543  1  -1.246454  0  -0.371405  -0.527108  0  3.365971  0
N  N266  1  0.27393403  0.02637631  0.64944207  1  -1.271296  0  -0.3272  -0.236063  0  3.58293  0
N  N267  1  0.72606716  0.97362361  0.35055783  1  -1.271302  0  -0.3272  -0.236052  0  3.582904  0
N  N268  1  0.43210654  0.68735822  0.98661691  1  -1.348896  0  -0.588697  -0.677037  0  3.312832  0
N  N269  1  0.56788625  0.31264226  0.01338175  1  -1.348892  0  -0.588662  -0.677058  0  3.312868  0
N  N270  1  0.30668409  0.76566331  0.05495582  1  -1.237376  0  -0.374163  -0.531252  0  3.355293  0
N  N271  1  0.69331265  0.23433771  0.94504368  1  -1.237278  0  -0.374199  -0.531322  0  3.355172  0
N  N272  1  0.36590105  0.90142716  0.83463358  1  -0.853516  0  -0.31619  -0.355792  0  3.520267  0
N  N273  1  0.63409877  0.09857276  0.16536694  1  -0.853524  0  -0.316245  -0.355874  0  3.520281  0
N  N274  1  0.22053998  0.63800756  0.12393935  1  -1.248002  0  -0.324047  -0.234348  0  3.583764  0
N  N275  1  0.77946086  0.36199126  0.87606155  1  -1.247758  0  -0.324066  -0.23438  0  3.583709  0
N  N276  1  0.28004518  0.86262215  0.99120197  1  -0.89097  0  -0.320135  -0.382185  0  3.543179  0
N  N277  1  0.71995156  0.13737888  0.00879753  1  -0.890895  0  -0.320071  -0.382122  0  3.543132  0
N  N278  1  0.31683341  0.74466433  0.83701327  1  -1.223169  0  -0.326454  -0.227833  0  3.572277  0
N  N279  1  0.68316657  0.25533505  0.16298501  1  -1.222732  0  -0.326443  -0.227783  0  3.572254  0
N  N280  1  0.31633279  0.96347896  0.86941793  1  -0.86117  0  -0.314625  -0.367643  0  3.506819  0
N  N281  1  0.68366754  0.03652151  0.13058206  1  -0.861191  0  -0.314612  -0.36772  0  3.506807  0
N  N282  1  0.35394979  0.80772969  0.96111258  1  -0.854748  0  -0.312192  -0.348124  0  3.48524  0
N  N283  1  0.64604506  0.19227078  0.03888716  1  -0.854969  0  -0.312271  -0.348184  0  3.485312  0
N  N284  1  0.18121106  0.87124245  0.08824781  1  -1.366347  0  -0.584951  -0.671835  0  3.316738  0
N  N285  1  0.81878808  0.12875968  0.91175269  1  -1.366294  0  -0.584968  -0.671923  0  3.316676  0
N  N286  1  0.42418910  0.88090511  0.72935729  1  -1.331087  0  -0.58284  -0.66695  0  3.289861  0
N  N287  1  0.57581054  0.11909537  0.27064277  1  -1.331086  0  -0.582818  -0.666946  0  3.289857  0
N  N288  1  0.97173815  0.88639012  0.50153198  1  -1.198498  0  -0.305858  -0.330826  0  3.283104  0
N  N289  1  0.02826184  0.11361146  0.49846664  1  -1.198481  0  -0.30583  -0.330773  0  3.283064  0
N  N290  1  0.91990500  0.42066062  0.06473013  1  -1.200404  0  -0.309052  -0.338079  0  3.313758  0
N  N291  1  0.08009446  0.57933820  0.93527049  1  -1.200373  0  -0.309082  -0.338112  0  3.313724  0
N  N292  1  0.01019588  0.54430863  0.75693126  1  -1.191437  0  -0.30511  -0.330827  0  3.271558  0
N  N293  1  0.98980273  0.45569074  0.24306988  1  -1.191413  0  -0.305069  -0.330731  0  3.271484  0
N  N294  1  0.26622681  0.09172370  0.84697132  1  -1.26675  0  -0.594556  -0.663873  0  3.25919  0
N  N295  1  0.73377473  0.90827733  0.15302894  1  -1.26673  0  -0.594538  -0.663909  0  3.25913  0
O  O296  1  0.12155367  0.79648980  0.19210615  1  -1.17669  0  -0.330156  -0.568127  0  2.159917  0
O  O297  1  0.87844854  0.20350902  0.80789279  1  -1.176647  0  -0.330136  -0.568052  0  2.159953  0
O  O298  1  0.07350573  0.03498859  0.04776226  1  -1.1869  0  -0.315964  -0.56126  0  2.161493  0
O  O299  1  0.92649409  0.96501134  0.95223557  1  -1.18684  0  -0.315901  -0.561179  0  2.16149  0
O  O300  1  0.52998600  0.73462191  0.76538163  1  -1.174419  0  -0.320852  -0.545693  0  2.113193  0
O  O301  1  0.47001434  0.26537857  0.23461745  1  -1.174416  0  -0.320869  -0.545626  0  2.113344  0
O  O302  1  0.43940668  0.64824296  0.14007890  1  -1.161536  0  -0.33321  -0.538764  0  2.298323  0
O  O303  1  0.56059520  0.35175917  0.85991857  1  -1.161573  0  -0.333218  -0.538726  0  2.298335  0
O  O304  1  0.17727239  0.15816962  0.75052788  1  -1.194328  0  -0.327983  -0.570048  0  2.153479  0
O  O305  1  0.82272828  0.84182975  0.24947212  1  -1.194358  0  -0.327935  -0.569996  0  2.153579  0
O  O306  1  0.31844510  0.17227859  0.69962157  1  -1.164937  0  -0.332019  -0.54105  0  2.289438  0
O  O307  1  0.68155678  0.82772132  0.30037960  1  -1.164908  0  -0.332026  -0.541091  0  2.289427  0
O  O308  1  0.52911058  0.74355535  0.86621423  1  -1.176791  0  -0.343341  -0.564687  0  2.312313  0
O  O309  1  0.47088735  0.25644403  0.13378430  1  -1.17687  0  -0.3432  -0.564607  0  2.312307  0
O  O310  1  0.26983604  0.75086408  0.21131930  1  -1.163733  0  -0.336993  -0.547737  0  2.312379  0
O  O311  1  0.73016514  0.24913584  0.78868061  1  -1.163736  0  -0.336992  -0.547737  0  2.312415  0
O  O312  1  0.49368094  0.04852344  0.65673815  1  -1.164669  0  -0.335973  -0.546348  0  2.291292  0
O  O313  1  0.50631939  0.95147704  0.34326183  1  -1.164675  0  -0.335947  -0.546301  0  2.291318  0
O  O314  1  0.43828245  0.56818835  0.06844954  1  -1.18666  0  -0.330727  -0.573643  0  2.166379  0
O  O315  1  0.56171634  0.43181267  0.93155015  1  -1.186649  0  -0.33071  -0.573572  0  2.166448  0
O  O316  1  0.20083803  0.05410199  0.98224102  1  -1.178763  0  -0.325705  -0.550071  0  2.369877  0
O  O317  1  0.79916230  0.94589849  0.01775806  1  -1.178728  0  -0.325697  -0.549998  0  2.369874  0
O  O318  1  0.48995296  0.94070527  0.61771879  1  -1.196952  0  -0.328495  -0.567684  0  2.167034  0
O  O319  1  0.51004754  0.05929465  0.38228120  1  -1.196965  0  -0.328467  -0.567625  0  2.16696  0
O  O320  1  0.11583557  0.92386141  0.93358090  1  -1.215335  0  -0.568957  -0.743941  0  2.107795  0
O  O321  1  0.88416443  0.07614017  0.06641637  1  -1.215303  0  -0.569011  -0.744139  0  2.107593  0
