# generated using pymatgen
data_Al6H50C99O31
_symmetry_space_group_name_H-M   'P 1'
_cell_length_a   13.09061225
_cell_length_b   12.70295082
_cell_length_c   27.68124611
_cell_angle_alpha   90.75455635
_cell_angle_beta   90.78248984
_cell_angle_gamma   119.84646599
_symmetry_Int_Tables_number   1
_chemical_formula_structural   Al6H50C99O31
_chemical_formula_sum   'Al6 H50 C99 O31'
_cell_volume   3991.12247530
_cell_formula_units_Z   1
loop_
 _symmetry_equiv_pos_site_id
 _symmetry_equiv_pos_as_xyz
  1  'x, y, z'
loop_
 _atom_site_type_symbol
 _atom_site_label
 _atom_site_symmetry_multiplicity
 _atom_site_fract_x
 _atom_site_fract_y
 _atom_site_fract_z
 _atom_site_occupancy
 _atom_site_pbe_bader_charge
 _atom_site_pbe_bader_spin_density
 _atom_site_pbe_cm5_charge
 _atom_site_pbe_ddec_charge
 _atom_site_pbe_ddec_spin_density
 _atom_site_pbe_ddec_sum_bond_order
 _atom_site_pbe_magmom
Al  Al0  1  0.41549437  0.81500271  0.49522853  1  2.492169  0  0.39502  1.689427  0  2.554818  0
Al  Al1  1  0.64959147  0.07576726  0.49865650  1  2.479269  0  0.504601  1.662856  0  2.50877  0
Al  Al2  1  0.41683711  0.06759606  0.49705475  1  2.483341  0  0.505626  1.661501  0  2.510846  0
Al  Al3  1  0.91991784  0.84294484  0.98184594  1  2.491518  0  0.397651  1.687368  0  2.557963  0
Al  Al4  1  0.91444730  0.58715775  0.98255314  1  2.479918  0  0.505695  1.66367  0  2.502007  0
Al  Al5  1  0.68441071  0.58424947  0.98156903  1  2.479521  0  0.504635  1.662552  0  2.508349  0
H  H6  1  0.83804530  0.31078036  0.21392959  1  0.083578  0  0.103701  0.093102  0  0.987975  0
H  H7  1  0.87597111  0.40710129  0.85579298  1  0.0803  0  0.107977  0.114275  0  1.015966  0
H  H8  1  0.86166357  0.47734648  0.28838110  1  0.079649  0  0.105726  0.098415  0  0.988751  0
H  H9  1  0.78656375  0.27596114  0.61637352  1  0.11467  0  0.114401  0.12201  0  0.995632  0
H  H10  1  0.94733657  0.37591395  0.77777111  1  0.039741  0  0.101099  0.101683  0  1.033618  0
H  H11  1  0.91791231  0.33407982  0.68950810  1  0.067589  0  0.10511  0.104306  0  0.991196  0
H  H12  1  0.53489809  0.37823071  0.86443529  1  0.079656  0  0.111232  0.117831  0  0.999066  0
H  H13  1  0.40513510  0.32317452  0.79025627  1  0.05562  0  0.106347  0.106946  0  0.987745  0
H  H14  1  0.37694481  0.28822643  0.70365108  1  0.038226  0  0.099818  0.080366  0  1.033715  0
H  H15  1  0.07394094  0.93822288  0.85679136  1  0.128718  0  0.114404  0.123976  0  0.994753  0
H  H16  1  0.23697598  0.03123809  0.62355850  1  0.111967  0  0.103154  0.109542  0  1.01766  0
H  H17  1  0.28878023  0.78885959  0.20932512  1  0.034942  0  0.095993  0.07841  0  1.01183  0
H  H18  1  0.11462015  0.05876773  0.78327417  1  0.075527  0  0.099034  0.099495  0  1.020724  0
H  H19  1  0.62361079  0.13296980  0.25466435  1  0.120153  0  0.099604  0.094317  0  1.034411  0
H  H20  1  0.17029718  0.09159966  0.69725756  1  0.048475  0  0.095572  0.09376  0  1.007335  0
H  H21  1  0.24482046  0.59969940  0.69778860  1  0.064937  0  0.09587  0.098046  0  1.023776  0
H  H22  1  0.27437569  0.71434712  0.62273402  1  0.100718  0  0.112832  0.12375  0  0.997237  0
H  H23  1  0.53879177  0.59736057  0.84921436  1  0.087125  0  0.105505  0.110356  0  1.010618  0
H  H24  1  0.49023903  0.70165473  0.61265702  1  0.124015  0  0.11663  0.1285  0  0.988914  0
H  H25  1  0.43582499  0.52751932  0.76992248  1  0.075488  0  0.097188  0.092312  0  1.029014  0
H  H26  1  0.41904967  0.56296584  0.68298514  1  0.010954  0  0.100043  0.097268  0  1.001521  0
H  H27  1  0.83805385  0.95408267  0.86729762  1  0.120676  0  0.11557  0.125803  0  1.005755  0
H  H28  1  0.12431386  0.63004075  0.27635244  1  0.079724  0  0.105147  0.095318  0  0.986235  0
H  H29  1  0.49884979  0.21523661  0.19521707  1  0.064403  0  0.103512  0.091917  0  0.996983  0
H  H30  1  0.89327285  0.13053249  0.70986208  1  0.056657  0  0.09617  0.098791  0  1.023253  0
H  H31  1  0.79109014  0.05862134  0.62982030  1  0.138141  0  0.1061  0.111863  0  1.006879  0
H  H32  1  0.52189383  0.38034856  0.27011202  1  0.062547  0  0.104342  0.093387  0  0.988362  0
H  H33  1  0.73499399  0.55749464  0.22968815  1  0.05533  0  0.098257  0.083135  0  1.035197  0
H  H34  1  0.13769309  0.99648945  0.21372869  1  0.096387  0  0.103824  0.098972  0  0.98171  0
H  H35  1  0.97190274  0.83566412  0.28034516  1  0.074726  0  0.101449  0.092699  0  1.00774  0
H  H36  1  0.46633265  0.89107711  0.23750225  1  0.597833  0  0.321997  0.345248  0  0.926826  0
H  H37  1  0.39446590  0.29231961  0.63915336  1  0.60772  0  0.330781  0.3504  0  0.905253  0
H  H38  1  0.07696776  0.60281626  0.89511718  1  0.650078  0  0.314754  0.35608  0  0.966488  0
H  H39  1  0.94178688  0.63584023  0.22180378  1  0.073938  0  0.099616  0.09034  0  1.023514  0
H  H40  1  0.26548203  0.57167278  0.81864974  1  0.045919  0  0.095497  0.138951  0  0.983783  0
H  H41  1  0.11799478  0.46792269  0.80376321  1  0.064057  0  0.088084  0.122583  0  1.035853  0
H  H42  1  0.22959682  0.49310261  0.76163174  1  -0.021989  0  0.082338  0.109579  0  1.023768  0
H  H43  1  0.99377454  0.20489741  0.78403748  1  0.016462  0  0.089004  0.121684  0  1.01227  0
H  H44  1  0.89557157  0.15747543  0.83323294  1  0.043581  0  0.09897  0.139973  0  0.979  0
H  H45  1  0.98899464  0.09610254  0.82527440  1  0.031547  0  0.095434  0.129764  0  1.005537  0
H  H46  1  0.40278494  0.06565345  0.24046225  1  0.036684  0  0.088223  0.11819  0  1.045155  0
H  H47  1  0.33581005  0.08775279  0.29217413  1  0.045973  0  0.098923  0.140989  0  0.981344  0
H  H48  1  0.40336578  0.99660219  0.29595680  1  0.057694  0  0.098634  0.145226  0  1.004403  0
H  H49  1  0.47718427  0.67706095  0.21253069  1  0.083686  0  0.105611  0.10796  0  0.985733  0
H  H50  1  0.61536920  0.64059000  0.28287705  1  0.086218  0  0.105603  0.097446  0  0.990014  0
H  H51  1  0.73923311  0.02060643  0.19761205  1  0.089303  0  0.107023  0.111105  0  0.983357  0
H  H52  1  0.87666257  0.98250435  0.26803245  1  0.049656  0  0.10516  0.095336  0  0.989102  0
H  H53  1  0.81361783  0.75716068  0.22177001  1  0.051328  0  0.100115  0.08839  0  1.018737  0
H  H54  1  0.31888862  0.61622889  0.46312228  1  0.593338  0  0.290612  0.381461  0  0.925433  0
H  H55  1  0.03802955  0.04443228  0.00928912  1  0.564276  0  0.291859  0.383518  0  0.922613  0
C  C56  1  0.62050437  0.90380812  0.42826070  1  1.673703  0  0.276821  0.712518  0  4.16007  0
C  C57  1  0.64314141  0.28993308  0.33981818  1  -0.186726  0  -0.018212  -0.024  0  4.057797  0
C  C58  1  0.04240781  0.82567309  0.26420470  1  -0.0291  0  -0.0724  -0.084046  0  3.654683  0
C  C59  1  0.59798847  0.20642415  0.42878837  1  1.6639  0  0.281515  0.722443  0  4.150308  0
C  C60  1  0.13447386  0.91501719  0.22802936  1  -0.060771  0  -0.071795  -0.119213  0  3.615163  0
C  C61  1  0.08912199  0.78087591  0.10090632  1  0.327843  0  -0.045574  -0.206776  0  3.975976  0
C  C62  1  0.20539356  0.86005927  0.38638652  1  0.250228  0  -0.040074  -0.196755  0  3.966121  0
C  C63  1  0.02588286  0.71465089  0.23282892  1  -0.033201  0  -0.069943  -0.080987  0  3.63118  0
C  C64  1  0.11815569  0.80425444  0.19551540  1  0.110872  0  0.007599  0.124362  0  3.814712  0
C  C65  1  0.12717057  0.71118964  0.26199611  1  -0.031514  0  -0.07018  -0.075584  0  3.649636  0
C  C66  1  0.14364585  0.82186492  0.29446601  1  0.104938  0  0.007751  0.084643  0  3.79733  0
C  C67  1  0.62532980  0.25986052  0.38190397  1  -0.090962  0  -0.040618  -0.202012  0  3.961587  0
C  C68  1  0.21946709  0.80054227  0.22601853  1  -0.031758  0  -0.071603  -0.117078  0  3.621592  0
C  C69  1  0.23678709  0.91274048  0.25710021  1  0.0124  0  0.007578  0.151465  0  3.653792  0
C  C70  1  0.10351938  0.79200357  0.14468915  1  -0.615484  0  -0.025759  -0.035458  0  4.079873  0
C  C71  1  0.27097298  0.88985780  0.43136719  1  1.63961  0  0.277252  0.710948  0  4.165819  0
C  C72  1  0.16904409  0.83892989  0.34461299  1  -0.510517  0  -0.025897  -0.032518  0  4.08079  0
C  C73  1  0.64284610  0.72444081  0.26338040  1  -0.049367  0  -0.06771  -0.066663  0  3.638756  0
C  C74  1  0.56595154  0.74483158  0.22505357  1  -0.051636  0  -0.080223  -0.171148  0  3.648193  0
C  C75  1  0.68912110  0.77798466  0.09810440  1  0.169499  0  -0.04414  -0.200068  0  3.97919  0
C  C76  1  0.65659401  0.88494510  0.38156713  1  -0.035391  0  -0.038797  -0.191985  0  3.962867  0
C  C77  1  0.75291340  0.78966064  0.23078748  1  0.008229  0  -0.068976  -0.078459  0  3.625798  0
C  C78  1  0.71054783  0.46305222  0.23560285  1  -0.016656  0  -0.069242  -0.077208  0  3.629803  0
C  C79  1  0.67580870  0.81021110  0.19134676  1  0.083253  0  0.00776  0.136985  0  3.817768  0
C  C80  1  0.78812307  0.91489539  0.25535784  1  -0.00483  0  -0.071646  -0.073665  0  3.651897  0
C  C81  1  0.67858536  0.85037396  0.28938756  1  0.128378  0  0.006163  0.065343  0  3.793549  0
C  C82  1  0.71221394  0.93660552  0.21697835  1  -0.059784  0  -0.077277  -0.160415  0  3.617044  0
C  C83  1  0.62036264  0.90675445  0.56623905  1  1.54527  0  0.27339  0.638231  0  4.088857  0
C  C84  1  0.60145567  0.87038053  0.24959981  1  0.588304  0  0.091056  0.279923  0  3.741434  0
C  C85  1  0.67973883  0.79141591  0.14116565  1  -0.44973  0  -0.028044  -0.042131  0  4.084394  0
C  C86  1  0.67168074  0.86987562  0.33927458  1  -0.256201  0  -0.028771  -0.029359  0  4.082005  0
C  C87  1  0.72250133  0.28650723  0.63752815  1  -0.023182  0  -0.070159  -0.111162  0  3.943032  0
C  C88  1  0.74345218  0.31490403  0.68686280  1  -0.031207  0  -0.013474  0.054309  0  4.06199  0
C  C89  1  0.69774701  0.37039695  0.19354912  1  0.087957  0  0.006783  0.112372  0  3.798219  0
C  C90  1  0.77749008  0.36293627  0.78825171  1  -0.003984  0  -0.001611  0.083224  0  4.027782  0
C  C91  1  0.86618551  0.35934898  0.75962045  1  -0.010917  0  -0.089855  -0.13285  0  4.000191  0
C  C92  1  0.84972183  0.33614662  0.71106752  1  -0.020416  0  -0.083022  -0.116068  0  4.01171  0
C  C93  1  0.79360328  0.38836604  0.83807040  1  -0.004804  0  -0.075822  -0.134992  0  3.912521  0
C  C94  1  0.70671940  0.39449738  0.86505151  1  -0.043427  0  -0.018447  -0.053265  0  4.027194  0
C  C95  1  0.59876478  0.22113704  0.56288147  1  1.548841  0  0.278503  0.66542  0  4.063928  0
C  C96  1  0.53504155  0.28254056  0.63997705  1  0.486623  0  0.108013  0.272789  0  3.989977  0
C  C97  1  0.54920789  0.30319779  0.69084855  1  0.057759  0  -0.020561  -0.061387  0  4.038726  0
C  C98  1  0.65422514  0.32020806  0.71425680  1  -0.000165  0  0.011693  0.032933  0  3.923114  0
C  C99  1  0.46053912  0.30528194  0.71992183  1  -0.033527  0  -0.090418  -0.120535  0  4.050657  0
C  C100  1  0.59211510  0.36492254  0.25731768  1  -0.024098  0  -0.070777  -0.081686  0  3.636944  0
C  C101  1  0.47505907  0.32448057  0.76881849  1  -0.090577  0  -0.083636  -0.118887  0  3.996971  0
C  C102  1  0.58120421  0.34603733  0.79305433  1  0.067249  0  -0.003112  0.080728  0  4.030586  0
C  C103  1  0.67065722  0.34272167  0.76506181  1  -0.039985  0  0.012686  0.012741  0  3.880588  0
C  C104  1  0.60077836  0.37211763  0.84282353  1  -0.000418  0  -0.074999  -0.137209  0  3.921583  0
C  C105  1  0.61964075  0.26834052  0.61352575  1  0.057947  0  -0.02186  -0.15963  0  3.954405  0
C  C106  1  0.23114379  0.95420885  0.64282139  1  -0.062442  0  -0.08529  -0.151586  0  3.941896  0
C  C107  1  0.30072556  0.89636250  0.56811349  1  1.552886  0  0.271273  0.638061  0  4.086958  0
C  C108  1  0.19801499  0.93671897  0.69127172  1  -0.02347  0  -0.008784  0.079372  0  4.042046  0
C  C109  1  0.13224250  0.89844148  0.78971580  1  0.01111  0  -0.017698  0.051693  0  4.067531  0
C  C110  1  0.13760402  0.99829944  0.76397594  1  -0.1126  0  -0.092388  -0.125375  0  4.025701  0
C  C111  1  0.66199827  0.32030410  0.29046351  1  0.110201  0  0.010649  0.119295  0  3.783616  0
C  C112  1  0.16866774  0.01667649  0.71677584  1  -0.023364  0  -0.099903  -0.145373  0  4.04859  0
C  C113  1  0.09723700  0.87799240  0.83753607  1  -0.029945  0  -0.075683  -0.109757  0  3.964096  0
C  C114  1  0.08815326  0.77826571  0.86221229  1  -0.019814  0  -0.039855  -0.204644  0  4.040305  0
C  C115  1  0.25244231  0.77498908  0.64245946  1  -0.031983  0  -0.077713  -0.141413  0  3.916592  0
C  C116  1  0.22125206  0.75541403  0.69115374  1  -0.002451  0  -0.007593  0.087108  0  4.070942  0
C  C117  1  0.19349254  0.83640932  0.71623178  1  -0.027109  0  0.005844  0.001945  0  3.899111  0
C  C118  1  0.21931242  0.65828415  0.71706166  1  -0.047135  0  -0.096464  -0.207684  0  3.974316  0
C  C119  1  0.78111306  0.41892893  0.26733222  1  -0.026079  0  -0.068566  -0.080709  0  3.631025  0
C  C120  1  0.19070270  0.63741203  0.76485100  1  -0.019536  0  -0.004714  0.15172  0  3.945209  0
C  C121  1  0.15688799  0.71553734  0.79036421  1  -0.002261  0  -0.014195  -0.09564  0  3.91889  0
C  C122  1  0.57886561  0.27220026  0.21676625  1  -0.030682  0  -0.068908  -0.077685  0  3.638622  0
C  C123  1  0.16105726  0.81616672  0.76559671  1  0.031233  0  0.009251  0.027614  0  3.922399  0
C  C124  1  0.11806107  0.69715718  0.83894530  1  0.526918  0  0.102561  0.278288  0  4.000065  0
C  C125  1  0.25821787  0.87401844  0.61859993  1  0.04474  0  -0.017673  -0.039833  0  4.027217  0
C  C126  1  0.56011143  0.76965634  0.63617495  1  -0.044942  0  -0.072971  -0.136597  0  3.912666  0
C  C127  1  0.56859849  0.74656610  0.68496400  1  -0.019608  0  -0.005426  0.078563  0  4.039966  0
C  C128  1  0.58721328  0.70526690  0.78484357  1  0.036042  0  -0.005976  0.077658  0  4.032048  0
C  C129  1  0.49697458  0.61388591  0.75398997  1  -0.10766  0  -0.090783  -0.128219  0  4.020622  0
C  C130  1  0.48796709  0.63336407  0.70618901  1  0.012544  0  -0.08935  -0.130383  0  4.020833  0
C  C131  1  0.76768351  0.32595582  0.22674392  1  -0.021141  0  -0.0706  -0.081063  0  3.636212  0
C  C132  1  0.59889948  0.68470480  0.83369895  1  -0.076582  0  -0.079361  -0.140071  0  3.93715  0
C  C133  1  0.64912275  0.22759534  0.24837703  1  -0.053613  0  -0.068055  -0.074021  0  3.603341  0
C  C134  1  0.68993049  0.77465538  0.86242841  1  0.07115  0  -0.019252  -0.049499  0  4.031778  0
C  C135  1  0.73064460  0.97201652  0.64577488  1  -0.051156  0  -0.07805  -0.138002  0  3.925192  0
C  C136  1  0.74192843  0.95275231  0.69484386  1  0.007769  0  -0.006603  0.083238  0  4.058264  0
C  C137  1  0.65967623  0.83924092  0.71494781  1  0.016767  0  0.005625  0.001199  0  3.913778  0
C  C138  1  0.83183695  0.04401880  0.72579303  1  -0.089783  0  -0.093066  -0.201641  0  3.97384  0
C  C139  1  0.84200057  0.02733881  0.77400265  1  0.053927  0  -0.006948  0.126848  0  3.983419  0
C  C140  1  0.76018577  0.91227623  0.79474568  1  -0.022925  0  -0.004801  0.020229  0  3.989241  0
C  C141  1  0.66905041  0.81933845  0.76476691  1  -0.01676  0  0.008617  0.013031  0  3.915219  0
C  C142  1  0.76869211  0.88753540  0.84330964  1  -0.083569  0  -0.075313  -0.129863  0  3.917683  0
C  C143  1  0.71869994  0.41315381  0.10029923  1  0.078235  0  -0.044646  -0.210725  0  3.967875  0
C  C144  1  0.71115351  0.39460074  0.14360454  1  -0.331822  0  -0.017005  -0.019917  0  4.060518  0
C  C145  1  0.64002686  0.88178210  0.61686232  1  -0.043437  0  -0.016126  -0.042368  0  4.020144  0
C  C146  1  0.04866565  0.76165132  0.05132420  1  1.653656  0  0.27613  0.716681  0  4.159571  0
C  C147  1  0.73569601  0.45500769  0.05158809  1  1.647565  0  0.281989  0.723276  0  4.150713  0
C  C148  1  0.71997455  0.76045984  0.05024562  1  1.684342  0  0.276113  0.713418  0  4.164328  0
C  C149  1  0.04007377  0.75830127  0.91122267  1  1.484838  0  0.266248  0.644154  0  4.07234  0
C  C150  1  0.73268757  0.43912118  0.91597964  1  1.532363  0  0.280763  0.656495  0  4.060877  0
C  C151  1  0.71246960  0.74932270  0.91244511  1  1.534931  0  0.274024  0.640891  0  4.083199  0
C  C152  1  0.20090788  0.53677749  0.78844680  1  -0.019619  0  -0.242171  -0.405631  0  3.988081  0
C  C153  1  0.93515294  0.12659796  0.80560203  1  -0.028956  0  -0.234193  -0.410914  0  3.989996  0
C  C154  1  0.35077574  0.02123682  0.27232559  1  -0.041961  0  -0.240818  -0.428202  0  3.978932  0
O  O155  1  0.30581256  0.81839354  0.44502948  1  -1.213262  0  -0.20863  -0.560092  0  2.290986  0
O  O156  1  0.65858083  0.47837960  0.03370804  1  -1.244816  0  -0.229282  -0.589  0  2.243862  0
O  O157  1  0.64224774  0.66753153  0.02533194  1  -1.259604  0  -0.245296  -0.610452  0  2.231679  0
O  O158  1  0.51703472  0.82775901  0.44012184  1  -1.21699  0  -0.210113  -0.558531  0  2.288603  0
O  O159  1  0.80363391  0.82975615  0.93472833  1  -1.254313  0  -0.212466  -0.558358  0  2.35437  0
O  O160  1  0.00981548  0.83043051  0.92842725  1  -1.241864  0  -0.208441  -0.544682  0  2.3693  0
O  O161  1  0.02795784  0.66300567  0.93442499  1  -1.268451  0  -0.249767  -0.624245  0  2.31152  0
O  O162  1  0.83415377  0.46700150  0.93423202  1  -1.270515  0  -0.239504  -0.606635  0  2.291949  0
O  O163  1  0.65642057  0.45528698  0.93831225  1  -1.269774  0  -0.234377  -0.60117  0  2.304184  0
O  O164  1  0.64008754  0.64396368  0.92942455  1  -1.284538  0  -0.249186  -0.616404  0  2.2808  0
O  O165  1  0.83962379  0.66964885  0.98250627  1  -1.607561  0  -0.391152  -1.26742  0  2.294211  0
O  O166  1  0.67630355  0.19951653  0.54466333  1  -1.264126  0  -0.23759  -0.605251  0  2.304426  0
O  O167  1  0.69508284  0.99881226  0.45303700  1  -1.258435  0  -0.243827  -0.607972  0  2.230538  0
O  O168  1  0.67611838  0.18840267  0.44927947  1  -1.238318  0  -0.229183  -0.590552  0  2.247177  0
O  O169  1  0.49661364  0.17647720  0.44522115  1  -1.243054  0  -0.2277  -0.587064  0  2.244463  0
O  O170  1  0.29320135  0.99044167  0.45270424  1  -1.250568  0  -0.242258  -0.602644  0  2.225261  0
O  O171  1  0.32323769  0.82004233  0.54844417  1  -1.249673  0  -0.215085  -0.561261  0  2.358671  0
O  O172  1  0.53038389  0.82635057  0.54349273  1  -1.249003  0  -0.212122  -0.557039  0  2.357007  0
O  O173  1  0.69414122  0.01175305  0.54942480  1  -1.281596  0  -0.249749  -0.614409  0  2.279388  0
O  O174  1  0.52611996  0.91218857  0.26292900  1  -1.139926  0  -0.364825  -0.47971  0  2.30396  0
O  O175  1  0.44018171  0.27466250  0.61626200  1  -1.107456  0  -0.323673  -0.390951  0  2.321573  0
O  O176  1  0.10799062  0.60009099  0.86252721  1  -1.159975  0  -0.337989  -0.427653  0  2.329159  0
O  O177  1  0.50268837  0.19660937  0.54080408  1  -1.261413  0  -0.229387  -0.583175  0  2.321089  0
O  O178  1  0.31557917  0.99431886  0.54831368  1  -1.276321  0  -0.247872  -0.61251  0  2.288817  0
O  O179  1  0.49490395  0.98797817  0.49636074  1  -1.610248  0  -0.391473  -1.271739  0  2.301003  0
O  O180  1  0.82287693  0.83523624  0.03731971  1  -1.220021  0  -0.209193  -0.558894  0  2.298749  0
O  O181  1  0.02999503  0.84061196  0.03247295  1  -1.210793  0  -0.212444  -0.565305  0  2.28387  0
O  O182  1  0.02937129  0.66109609  0.03074698  1  -1.258989  0  -0.246527  -0.609684  0  2.224479  0
O  O183  1  0.82864958  0.47122694  0.03050895  1  -1.246744  0  -0.229523  -0.59304  0  2.249893  0
O  O184  1  0.34332943  0.65575129  0.49457673  1  -1.3815  0  -0.580871  -0.999543  0  1.79543  0
O  O185  1  0.99474464  0.00197847  0.98016219  1  -1.355112  0  -0.579646  -0.998908  0  1.791472  0
