# generated using pymatgen
data_AlH10C13N3O5
_symmetry_space_group_name_H-M   'P 1'
_cell_length_a   6.65539019
_cell_length_b   11.06996471
_cell_length_c   16.94900239
_cell_angle_alpha   83.42332972
_cell_angle_beta   82.84074181
_cell_angle_gamma   73.58998530
_symmetry_Int_Tables_number   1
_chemical_formula_structural   AlH10C13N3O5
_chemical_formula_sum   'Al2 H20 C26 N6 O10'
_cell_volume   1184.37586083
_cell_formula_units_Z   2
loop_
 _symmetry_equiv_pos_site_id
 _symmetry_equiv_pos_as_xyz
  1  'x, y, z'
loop_
 _atom_site_type_symbol
 _atom_site_label
 _atom_site_symmetry_multiplicity
 _atom_site_fract_x
 _atom_site_fract_y
 _atom_site_fract_z
 _atom_site_occupancy
 _atom_site_pbe_bader_charge
 _atom_site_pbe_bader_spin_density
 _atom_site_pbe_cm5_charge
 _atom_site_pbe_ddec_charge
 _atom_site_pbe_ddec_spin_density
 _atom_site_pbe_ddec_sum_bond_order
 _atom_site_pbe_magmom
Al  Al0  1  0.49695293  0.50151091  0.49548137  1  2.501083  0  0.387527  1.629233  0  2.606929  0
Al  Al1  1  0.99637749  0.50359436  0.49657705  1  2.498746  0  0.393282  1.631808  0  2.586863  0
H  H2  1  0.18014696  0.65840091  0.46079763  1  0.614762  0  0.34526  0.416868  0  0.882117  0
H  H3  1  0.80913933  0.34802983  0.54017059  1  0.616928  0  0.344304  0.416538  0  0.881979  0
H  H4  1  0.84313248  0.57350221  0.73009079  1  0.072351  0  0.106319  0.105838  0  1.017051  0
H  H5  1  0.77681226  0.57446259  0.87936298  1  0.082247  0  0.100595  0.108756  0  1.031011  0
H  H6  1  0.44502395  0.45395610  0.89498445  1  0.097303  0  0.108763  0.121966  0  1.004945  0
H  H7  1  0.60842899  0.45193595  0.10069545  1  0.076438  0  0.108541  0.122462  0  1.00315  0
H  H8  1  0.17300346  0.56515925  0.10671076  1  0.10539  0  0.099439  0.106585  0  1.03616  0
H  H9  1  0.09995962  0.56750656  0.25611059  1  0.08119  0  0.105239  0.105638  0  1.015905  0
H  H10  1  0.84941006  0.76431593  0.61237057  1  0.064829  0  0.101256  0.107315  0  1.038141  0
H  H11  1  0.99060982  0.87797435  0.69844817  1  0.069389  0  0.100092  0.098095  0  0.99536  0
H  H12  1  0.60351164  0.23235579  0.60435131  1  0.0316  0  0.099606  0.09692  0  1.055141  0
H  H13  1  0.86469597  0.11453703  0.69465201  1  0.051878  0  0.098979  0.097424  0  0.997242  0
H  H14  1  0.58850667  0.44845456  0.68098448  1  0.486618  0  0.309667  0.320311  0  0.974138  0
H  H15  1  0.67623347  0.42467802  0.77626296  1  0.452417  0  0.307543  0.301793  0  0.957559  0
H  H16  1  0.45554867  0.45859707  0.31421149  1  0.515772  0  0.310685  0.321831  0  0.966328  0
H  H17  1  0.39881742  0.42388873  0.22286380  1  0.449659  0  0.306944  0.304235  0  0.958478  0
H  H18  1  0.10253135  0.22146767  0.41490677  1  0.47549  0  0.304492  0.306434  0  0.966361  0
H  H19  1  0.06764469  0.07975335  0.40234475  1  0.45542  0  0.308116  0.299159  0  0.943475  0
H  H20  1  0.38296217  0.78508136  0.40021597  1  0.430876  0  0.307214  0.300545  0  0.966367  0
H  H21  1  0.28880053  0.92871082  0.35157984  1  0.452783  0  0.306378  0.293004  0  0.950058  0
C  C22  1  0.63400801  0.72932245  0.50374804  1  1.51025  0  0.271149  0.670588  0  4.066947  0
C  C23  1  0.79458423  0.50810319  0.35046581  1  1.4932  0  0.25439  0.643143  0  4.110292  0
C  C24  1  0.35937323  0.27468969  0.49158210  1  1.480106  0  0.272387  0.677967  0  4.053931  0
C  C25  1  0.19992659  0.49998889  0.64122482  1  1.484299  0  0.257547  0.643599  0  4.093146  0
C  C26  1  0.17808983  0.50643281  0.72816284  1  0.013618  0  -0.033253  -0.181142  0  3.924906  0
C  C27  1  0.97307220  0.54400095  0.76754937  1  -0.007061  0  -0.088148  -0.069337  0  4.042823  0
C  C28  1  0.93514147  0.54518460  0.84937933  1  -0.047264  0  -0.112137  -0.208623  0  4.016776  0
C  C29  1  0.11032997  0.50927235  0.89481450  1  0.328779  0  0.087116  0.198771  0  4.079927  0
C  C30  1  0.31450790  0.47788614  0.85772590  1  -0.036161  0  -0.091687  -0.26363  0  3.882356  0
C  C31  1  0.35533904  0.47407756  0.77391097  1  0.523584  0  0.11862  0.324703  0  4.055355  0
C  C32  1  0.71682438  0.47483045  0.13613562  1  -0.019788  0  -0.092551  -0.264006  0  3.882938  0
C  C33  1  0.89510025  0.50450957  0.09662083  1  0.371561  0  0.085622  0.197869  0  4.077232  0
C  C34  1  0.03840219  0.53811748  0.13913142  1  -0.087523  0  -0.114215  -0.210294  0  4.019217  0
C  C35  1  0.99732339  0.53900019  0.22096500  1  0.014275  0  -0.090389  -0.070453  0  4.051256  0
C  C36  1  0.82072030  0.50655191  0.26300389  1  -0.016887  0  -0.036675  -0.185206  0  3.946244  0
C  C37  1  0.67449275  0.47416744  0.22004527  1  0.491461  0  0.114794  0.321614  0  4.07049  0
C  C38  1  0.56123520  0.86861826  0.50464462  1  0.031456  0  -0.028862  -0.211061  0  3.954962  0
C  C39  1  0.65050391  0.93280583  0.55410466  1  -0.040178  0  -0.011033  0.057901  0  4.005756  0
C  C40  1  0.40537054  0.93471976  0.45570509  1  0.42208  0  0.100101  0.19444  0  4.047684  0
C  C41  1  0.79809253  0.86705452  0.60864453  1  -0.030001  0  -0.099976  -0.13956  0  3.986209  0
C  C42  1  0.87733506  0.93093629  0.65719375  1  -0.044911  0  -0.100118  -0.086798  0  4.05479  0
C  C43  1  0.42461727  0.13464265  0.49855845  1  0.023853  0  -0.031493  -0.220749  0  3.956285  0
C  C44  1  0.32902015  0.07004545  0.45528438  1  0.458551  0  0.101305  0.199415  0  4.055508  0
C  C45  1  0.58292823  0.06808603  0.55021354  1  0.048691  0  -0.011352  0.061315  0  4.005191  0
C  C46  1  0.66302196  0.13039240  0.60275957  1  0.011202  0  -0.106387  -0.153968  0  4.006764  0
C  C47  1  0.80791574  0.06377119  0.65463690  1  -0.069962  0  -0.101501  -0.089867  0  4.06369  0
N  N48  1  0.09423215  0.50561806  0.97897744  1  -0.489033  0  -0.146045  -0.128972  0  3.262602  0
N  N49  1  0.91446569  0.50281064  0.01263966  1  -0.50577  0  -0.146274  -0.130807  0  3.261401  0
N  N50  1  0.55816475  0.43733645  0.74126106  1  -1.264513  0  -0.580668  -0.593397  0  3.342596  0
N  N51  1  0.50277229  0.43961006  0.25652919  1  -1.296198  0  -0.585831  -0.602563  0  3.338314  0
N  N52  1  0.17347138  0.12935892  0.40551375  1  -1.255511  0  -0.597526  -0.60443  0  3.289702  0
N  N53  1  0.31528184  0.87866529  0.40528230  1  -1.204392  0  -0.595016  -0.601949  0  3.313693  0
O  O54  1  0.49151339  0.67120691  0.50758217  1  -1.259097  0  -0.236984  -0.598705  0  2.350451  0
O  O55  1  0.95672358  0.50064055  0.38587923  1  -1.266203  0  -0.245363  -0.599585  0  2.345224  0
O  O56  1  0.16204722  0.33106293  0.49553132  1  -1.271859  0  -0.235912  -0.604482  0  2.343913  0
O  O57  1  0.38589041  0.48190010  0.60438503  1  -1.273475  0  -0.243844  -0.613976  0  2.396708  0
O  O58  1  0.50280530  0.33212264  0.48139671  1  -1.256179  0  -0.236402  -0.598281  0  2.360688  0
O  O59  1  0.03477612  0.51003325  0.60681328  1  -1.261861  0  -0.245647  -0.602274  0  2.341396  0
O  O60  1  0.83058145  0.67520786  0.49721158  1  -1.270682  0  -0.229168  -0.590198  0  2.365316  0
O  O61  1  0.60890851  0.51810525  0.38612876  1  -1.268863  0  -0.24599  -0.615282  0  2.383012  0
O  O62  1  0.22722499  0.56669178  0.46183050  1  -1.421102  0  -0.452489  -0.98253  0  2.181531  0
O  O63  1  0.76564307  0.43955026  0.53065035  1  -1.42566  0  -0.450337  -0.981955  0  2.188631  0
