# generated using pymatgen
data_ZnH36C27N7O8
_symmetry_space_group_name_H-M   'P 1'
_cell_length_a   10.69431003
_cell_length_b   16.80830439
_cell_length_c   17.69482773
_cell_angle_alpha   92.03685486
_cell_angle_beta   93.07223897
_cell_angle_gamma   93.42785646
_symmetry_Int_Tables_number   1
_chemical_formula_structural   ZnH36C27N7O8
_chemical_formula_sum   'Zn2 H72 C54 N14 O16'
_cell_volume   3168.05203817
_cell_formula_units_Z   2
loop_
 _symmetry_equiv_pos_site_id
 _symmetry_equiv_pos_as_xyz
  1  'x, y, z'
loop_
 _atom_site_type_symbol
 _atom_site_label
 _atom_site_symmetry_multiplicity
 _atom_site_fract_x
 _atom_site_fract_y
 _atom_site_fract_z
 _atom_site_occupancy
 _atom_site_pbe_bader_charge
 _atom_site_pbe_bader_spin_density
 _atom_site_pbe_cm5_charge
 _atom_site_pbe_ddec_charge
 _atom_site_pbe_ddec_spin_density
 _atom_site_pbe_ddec_sum_bond_order
 _atom_site_pbe_magmom
Zn  Zn0  1  0.50232639  0.40722643  0.50670279  1  1.322823  0  0.696624  0.900535  0  2.231446  0
Zn  Zn1  1  0.49205226  0.59095836  0.50533702  1  1.30323  0  0.688048  0.85829  0  2.372807  0
H  H2  1  0.97310402  0.53255705  0.72613902  1  0.062462  0  0.091974  0.086999  0  1.007376  0
H  H3  1  0.83936926  0.46878201  0.69151646  1  0.057311  0  0.095895  0.10097  0  0.99628  0
H  H4  1  0.81641409  0.55855861  0.74492071  1  0.07758  0  0.097099  0.101635  0  1.02567  0
H  H5  1  0.99602749  0.69727613  0.58598479  1  0.09758  0  0.096204  0.093191  0  1.042845  0
H  H6  1  0.13716583  0.70297133  0.53468705  1  0.061194  0  0.095749  0.103103  0  1.012186  0
H  H7  1  0.13985411  0.74079470  0.63100577  1  0.053469  0  0.101521  0.105839  0  0.9764  0
H  H8  1  0.28784568  0.63939603  0.44936468  1  0.505077  0  0.306448  0.269983  0  1.008889  0
H  H9  1  0.17040156  0.63822425  0.34117623  1  0.067971  0  0.112454  0.124616  0  0.966951  0
H  H10  1  0.29505086  0.69537840  0.30268679  1  0.037533  0  0.093424  0.091  0  1.010233  0
H  H11  1  0.16987199  0.74431093  0.34404495  1  0.059141  0  0.097785  0.103041  0  1.004826  0
H  H12  1  0.60107187  0.67375484  0.61684038  1  0.497857  0  0.307096  0.264081  0  1.004101  0
H  H13  1  0.80209334  0.70358312  0.64814044  1  0.106124  0  0.103952  0.113391  0  1.041091  0
H  H14  1  0.75970840  0.80214213  0.67360232  1  -0.003411  0  0.08468  0.080799  0  1.013712  0
H  H15  1  0.81005521  0.78030725  0.58138759  1  0.05621  0  0.100854  0.110299  0  0.98673  0
H  H16  1  0.81664519  0.49859248  0.35423260  1  0.069602  0  0.096016  0.100825  0  1.021055  0
H  H17  1  0.85417037  0.41375903  0.40852531  1  0.102733  0  0.100346  0.110731  0  1.001711  0
H  H18  1  0.96860794  0.45991252  0.35001833  1  0.071139  0  0.10861  0.114937  0  0.970888  0
H  H19  1  0.07123647  0.38643387  0.67275429  1  0.038203  0  0.085856  0.07577  0  1.013918  0
H  H20  1  0.21079828  0.35890327  0.62779605  1  0.115692  0  0.097879  0.112434  0  1.011524  0
H  H21  1  0.06370063  0.30388368  0.60488640  1  0.053763  0  0.094726  0.097287  0  0.990919  0
H  H22  1  0.46822640  0.31787463  0.85760481  1  0.449063  0  0.305316  0.240732  0  0.98768  0
H  H23  1  0.59346344  0.26611804  0.94888140  1  0.042215  0  0.093566  0.091705  0  0.991987  0
H  H24  1  0.54172624  0.34189023  0.01133637  1  0.065728  0  0.089636  0.097361  0  1.044125  0
H  H25  1  0.68118707  0.35947951  0.96242716  1  0.04893  0  0.097869  0.104432  0  0.993146  0
H  H26  1  0.32505111  0.36673314  0.12758812  1  0.422347  0  0.297281  0.233326  0  0.9841  0
H  H27  1  0.24161881  0.38631422  0.00962953  1  0.029723  0  0.098756  0.103047  0  0.98452  0
H  H28  1  0.37161971  0.44924746  0.98642594  1  0.088839  0  0.096014  0.111024  0  1.039063  0
H  H29  1  0.26134214  0.48601397  0.04914265  1  0.035316  0  0.087549  0.086433  0  0.99172  0
H  H30  1  0.47948038  0.24262688  0.73925088  1  0.017488  0  0.091741  0.08552  0  0.992811  0
H  H31  1  0.62194470  0.30482250  0.75490886  1  0.053561  0  0.093897  0.087957  0  1.007124  0
H  H32  1  0.54123702  0.29840897  0.66328112  1  0.085724  0  0.095646  0.10677  0  1.02946  0
H  H33  1  0.46828467  0.28674893  0.20333622  1  0.047491  0  0.089958  0.083254  0  1.006815  0
H  H34  1  0.34618694  0.26138119  0.26581762  1  0.041166  0  0.094622  0.093929  0  1.008197  0
H  H35  1  0.49128556  0.31035223  0.30368629  1  0.097561  0  0.09561  0.108472  0  1.013309  0
H  H36  1  0.63323260  0.68979259  0.77199532  1  0.386265  0  0.289895  0.212941  0  0.987569  0
H  H37  1  0.46062144  0.73991191  0.70657309  1  0.010164  0  0.090446  0.09165  0  1.027122  0
H  H38  1  0.39685801  0.68606785  0.78304045  1  0.016502  0  0.080515  0.076945  0  1.005032  0
H  H39  1  0.39153612  0.64196899  0.68934895  1  0.074863  0  0.104221  0.131165  0  1.001948  0
H  H40  1  0.66474822  0.59140738  0.35953097  1  0.423849  0  0.288388  0.240054  0  1.002139  0
H  H41  1  0.51851369  0.69126389  0.32265757  1  0.036645  0  0.082936  0.082476  0  1.04917  0
H  H42  1  0.62845479  0.72090243  0.25485651  1  0.037732  0  0.090124  0.089642  0  1.031997  0
H  H43  1  0.67391702  0.72790474  0.35336926  1  0.039537  0  0.097715  0.111878  0  0.981507  0
H  H44  1  0.62850826  0.69253998  0.87373403  1  0.384304  0  0.292106  0.220212  0  0.987504  0
H  H45  1  0.81139253  0.70370310  0.95288411  1  0.011424  0  0.098053  0.103036  0  0.993879  0
H  H46  1  0.84747621  0.63924999  0.87532544  1  0.028662  0  0.082761  0.077991  0  1.01097  0
H  H47  1  0.80450632  0.59901475  0.96316782  1  0.061756  0  0.10198  0.115436  0  0.995398  0
H  H48  1  0.75932042  0.63916230  0.20413077  1  0.426217  0  0.293795  0.23547  0  0.989888  0
H  H49  1  0.61557482  0.72065542  0.12411813  1  -0.002956  0  0.075568  0.064844  0  1.01955  0
H  H50  1  0.64329894  0.65216941  0.04839063  1  0.1021  0  0.093636  0.10538  0  1.060986  0
H  H51  1  0.77049622  0.71279628  0.09227030  1  0.027786  0  0.093877  0.098387  0  0.991608  0
H  H52  1  0.28914005  0.04939499  0.46081166  1  0.401585  0  0.293526  0.242927  0  0.960957  0
H  H53  1  0.29102831  0.08431360  0.32730234  1  0.012693  0  0.087244  0.085234  0  1.001366  0
H  H54  1  0.20933067  0.16957764  0.35340343  1  0.054049  0  0.099961  0.103084  0  1.032627  0
H  H55  1  0.13733455  0.07266134  0.36276775  1  0.039449  0  0.102422  0.113189  0  0.977751  0
H  H56  1  0.72593623  0.06990367  0.46611302  1  0.410034  0  0.295286  0.243477  0  0.958165  0
H  H57  1  0.73369382  0.07925010  0.60523509  1  0.013311  0  0.087683  0.088096  0  1.01593  0
H  H58  1  0.81396456  0.17452269  0.59826856  1  0.037606  0  0.097511  0.101067  0  1.03691  0
H  H59  1  0.88339211  0.08759952  0.56463777  1  0.052483  0  0.102716  0.113663  0  0.977828  0
H  H60  1  0.21366530  0.22195000  0.48087587  1  0.431806  0  0.299463  0.236969  0  0.980096  0
H  H61  1  0.19362541  0.29231442  0.36772615  1  -0.011058  0  0.080922  0.069372  0  1.028132  0
H  H62  1  0.30937707  0.36548658  0.40433561  1  0.121469  0  0.104625  0.127436  0  1.048752  0
H  H63  1  0.16100434  0.35821610  0.44525000  1  0.098051  0  0.101048  0.119256  0  1.016851  0
H  H64  1  0.79683582  0.25211435  0.49040340  1  0.43034  0  0.299786  0.240738  0  0.972319  0
H  H65  1  0.79783683  0.29084316  0.62371037  1  -0.035093  0  0.076246  0.061971  0  1.038683  0
H  H66  1  0.69850531  0.36836918  0.59924556  1  0.106122  0  0.101965  0.123442  0  1.07468  0
H  H67  1  0.85302711  0.37150356  0.56813947  1  0.062078  0  0.100315  0.114865  0  1.036691  0
H  H68  1  0.40461762  0.82232472  0.27789596  1  0.060812  0  0.09321  0.08684  0  1.015117  0
H  H69  1  0.45606270  0.91981462  0.31704680  1  0.053516  0  0.090328  0.087116  0  1.017451  0
H  H70  1  0.30017238  0.90228501  0.27470080  1  0.050022  0  0.104267  0.108957  0  0.977953  0
H  H71  1  0.56625971  0.87223582  0.67504446  1  0.044286  0  0.092689  0.087679  0  1.018924  0
H  H72  1  0.51697864  0.95860158  0.62706431  1  0.054795  0  0.092459  0.090889  0  1.000467  0
H  H73  1  0.66957188  0.96062753  0.67527759  1  0.044507  0  0.100565  0.101508  0  0.992983  0
C  C74  1  0.48745524  0.48859748  0.36014615  1  1.591698  0  0.218718  0.624051  0  4.149816  0
C  C75  1  0.52929991  0.49715956  0.65300844  1  1.604335  0  0.220937  0.624664  0  4.118907  0
C  C76  1  0.26778172  0.49716695  0.54166468  1  1.563596  0  0.212728  0.573471  0  4.196621  0
C  C77  1  0.73574672  0.53185381  0.49824006  1  1.646535  0  0.217437  0.567262  0  4.214744  0
C  C78  1  0.93518510  0.55022363  0.57837867  1  0.58572  0  0.037532  0.011379  0  4.104603  0
C  C79  1  0.07174771  0.55180148  0.58904987  1  0.496043  0  0.075869  0.109069  0  4.100263  0
C  C80  1  0.87697413  0.53427221  0.50902097  1  0.432302  0  0.081049  0.040539  0  3.980711  0
C  C81  1  0.13839182  0.48876054  0.56775912  1  0.557624  0  0.044996  -0.039629  0  3.994633  0
C  C82  1  0.54241732  0.42966539  0.85713976  1  0.504946  0  0.087439  0.072822  0  4.10697  0
C  C83  1  0.45876725  0.45132628  0.14581714  1  0.445662  0  0.084327  0.079753  0  4.065831  0
C  C84  1  0.51372220  0.43169902  0.77827584  1  0.48706  0  0.065563  0.119478  0  4.047489  0
C  C85  1  0.45029298  0.44056967  0.22394442  1  0.451095  0  0.056272  0.108625  0  4.057548  0
C  C86  1  0.53200001  0.50200109  0.73802412  1  -0.060377  0  -0.028369  -0.201865  0  3.941328  0
C  C87  1  0.51383799  0.49364804  0.27797002  1  -0.036248  0  -0.032321  -0.203259  0  3.999837  0
C  C88  1  0.57106675  0.57462048  0.77927325  1  0.364633  0  0.073376  0.096096  0  4.037455  0
C  C89  1  0.59519387  0.55608968  0.25425984  1  0.401357  0  0.066121  0.089967  0  4.043461  0
C  C90  1  0.60654770  0.57259956  0.85704052  1  0.395242  0  0.077883  0.07655  0  4.038317  0
C  C91  1  0.61615301  0.56241254  0.17642564  1  0.423873  0  0.087535  0.10128  0  4.032185  0
C  C92  1  0.58928183  0.50122713  0.89693966  1  0.095115  0  -0.018336  -0.031897  0  4.119858  0
C  C93  1  0.54815675  0.51016722  0.12164380  1  0.081499  0  -0.022363  -0.041938  0  4.101807  0
C  C94  1  0.59259343  0.50599195  0.97679537  1  0.091169  0  -0.046549  -0.094802  0  4.130906  0
C  C95  1  0.57574475  0.51061244  0.04468319  1  -0.490813  0  -0.037802  -0.064065  0  4.107437  0
C  C96  1  0.39377212  0.15187573  0.46337680  1  0.400804  0  0.074478  0.031267  0  4.033256  0
C  C97  1  0.62002558  0.16051155  0.48835040  1  0.437348  0  0.073665  0.03009  0  4.038  0
C  C98  1  0.39486825  0.23559545  0.47615382  1  0.942011  0  0.215682  0.280341  0  4.050564  0
C  C99  1  0.61524166  0.24415094  0.49764752  1  0.926392  0  0.210813  0.27478  0  4.057013  0
C  C100  1  0.50738273  0.11422438  0.47086784  1  0.086688  0  -0.010661  -0.001127  0  4.182051  0
C  C101  1  0.50749404  0.03031545  0.46381821  1  -0.241629  0  -0.041946  -0.106594  0  4.145854  0
C  C102  1  0.50402686  0.95754654  0.46285673  1  -0.192013  0  -0.02958  -0.055463  0  4.137357  0
C  C103  1  0.40764495  0.82385837  0.43024797  1  0.458959  0  0.057189  0.040809  0  4.012062  0
C  C104  1  0.57602651  0.84419100  0.52935167  1  0.525633  0  0.053176  0.035931  0  4.020282  0
C  C105  1  0.39153872  0.74344088  0.45081715  1  1.011201  0  0.217771  0.277953  0  4.115835  0
C  C106  1  0.56128704  0.76239327  0.54463113  1  1.033022  0  0.215546  0.278136  0  4.133296  0
C  C107  1  0.49889525  0.87418174  0.47150296  1  0.162243  0  -0.01514  -0.025335  0  4.209194  0
C  C108  1  0.87490256  0.53105831  0.70353706  1  0.33654  0  -0.143368  -0.17087  0  3.904324  0
C  C109  1  0.09848301  0.69450436  0.59042893  1  0.327287  0  -0.141791  -0.171535  0  3.889072  0
C  C110  1  0.22965938  0.69374434  0.34882386  1  0.284027  0  -0.132948  -0.202548  0  3.966411  0
C  C111  1  0.75669993  0.75602374  0.62750795  1  0.292106  0  -0.141084  -0.212557  0  3.975183  0
C  C112  1  0.89132553  0.47024666  0.38667780  1  0.322041  0  -0.137218  -0.17273  0  3.874433  0
C  C113  1  0.10882214  0.36306724  0.62007866  1  0.321309  0  -0.14652  -0.174149  0  3.921044  0
C  C114  1  0.58586996  0.33076027  0.95747754  1  0.271542  0  -0.141053  -0.206768  0  3.979467  0
C  C115  1  0.31111102  0.43308745  0.03206959  1  0.252671  0  -0.14475  -0.212257  0  3.966323  0
C  C116  1  0.52924757  0.29863786  0.72441205  1  0.366403  0  -0.145098  -0.168169  0  3.925982  0
C  C117  1  0.42267980  0.30523452  0.25500336  1  0.338854  0  -0.147861  -0.175  0  3.921895  0
C  C118  1  0.44834871  0.68082455  0.73071039  1  0.272726  0  -0.152334  -0.224381  0  3.961626  0
C  C119  1  0.61808438  0.69205851  0.30910208  1  0.241229  0  -0.15214  -0.218092  0  3.975455  0
C  C120  1  0.78615707  0.64603513  0.92326549  1  0.275216  0  -0.144545  -0.217694  0  3.985186  0
C  C121  1  0.68275582  0.67862251  0.10267682  1  0.25438  0  -0.149482  -0.214669  0  3.996058  0
C  C122  1  0.22696223  0.10831901  0.36823419  1  0.26502  0  -0.14356  -0.218387  0  3.972459  0
C  C123  1  0.79418635  0.11592180  0.56959300  1  0.275045  0  -0.144207  -0.216689  0  3.966285  0
C  C124  1  0.23354347  0.32412285  0.42011372  1  0.226887  0  -0.150973  -0.213284  0  3.918463  0
C  C125  1  0.77135001  0.33176857  0.57865388  1  0.286926  0  -0.156927  -0.233742  0  3.947262  0
C  C126  1  0.37538539  0.87598340  0.30816940  1  0.364475  0  -0.140793  -0.17448  0  3.929203  0
C  C127  1  0.59770518  0.92323086  0.64180808  1  0.378236  0  -0.141511  -0.175453  0  3.93704  0
N  N128  1  0.50429384  0.28073163  0.49306066  1  -1.224241  0  -0.316562  -0.371857  0  3.384534  0
N  N129  1  0.47323207  0.71416293  0.50375633  1  -1.219918  0  -0.34689  -0.409829  0  3.445257  0
N  N130  1  0.29542102  0.69245624  0.42274902  1  -1.230225  0  -0.435292  -0.294518  0  3.591782  0
N  N131  1  0.62984880  0.72948682  0.60078768  1  -1.245484  0  -0.438491  -0.296326  0  3.618306  0
N  N132  1  0.51454145  0.35977307  0.89284926  1  -1.211409  0  -0.451208  -0.277866  0  3.616695  0
N  N133  1  0.38251902  0.40088432  0.09588041  1  -1.150901  0  -0.456452  -0.298977  0  3.534345  0
N  N134  1  0.57251072  0.64872051  0.74367400  1  -1.100692  0  -0.467065  -0.305241  0  3.523988  0
N  N135  1  0.66446666  0.61138293  0.30580707  1  -1.114928  0  -0.480474  -0.354899  0  3.487103  0
N  N136  1  0.65221601  0.64206326  0.89962005  1  -1.105448  0  -0.467492  -0.317928  0  3.52738  0
N  N137  1  0.71073248  0.61702057  0.15596163  1  -1.136103  0  -0.466396  -0.311053  0  3.537741  0
N  N138  1  0.27818008  0.10722517  0.44715230  1  -1.082943  0  -0.469867  -0.336106  0  3.48615  0
N  N139  1  0.73669505  0.12482734  0.49306909  1  -1.107198  0  -0.468437  -0.331823  0  3.487597  0
N  N140  1  0.27897869  0.26797122  0.47543333  1  -1.148111  0  -0.44952  -0.309333  0  3.509908  0
N  N141  1  0.72936644  0.28817467  0.50765285  1  -1.146456  0  -0.454362  -0.316509  0  3.500235  0
O  O142  1  0.48984239  0.42113159  0.39049492  1  -1.165279  0  -0.307102  -0.548725  0  2.367632  0
O  O143  1  0.54403265  0.42894333  0.62199190  1  -1.163968  0  -0.310208  -0.54636  0  2.393358  0
O  O144  1  0.46542104  0.55412344  0.39381007  1  -1.181108  0  -0.316199  -0.552344  0  2.364818  0
O  O145  1  0.51860068  0.56089848  0.61675375  1  -1.181172  0  -0.309322  -0.555109  0  2.426082  0
O  O146  1  0.32772556  0.43434255  0.53691609  1  -1.162405  0  -0.305427  -0.538238  0  2.434769  0
O  O147  1  0.68190367  0.46298529  0.49650759  1  -1.16166  0  -0.294002  -0.530125  0  2.418386  0
O  O148  1  0.30675747  0.56611693  0.52104421  1  -1.177074  0  -0.321376  -0.557218  0  2.433563  0
O  O149  1  0.68448719  0.59780183  0.49091320  1  -1.159359  0  -0.309903  -0.523549  0  2.291747  0
O  O150  1  0.86351007  0.57662698  0.63659017  1  -1.063709  0  -0.201934  -0.163515  0  2.567908  0
O  O151  1  0.13497325  0.61983063  0.61936775  1  -1.043083  0  -0.189217  -0.150283  0  2.573202  0
O  O152  1  0.94590494  0.52275659  0.44744640  1  -1.056935  0  -0.185349  -0.137825  0  2.584337  0
O  O153  1  0.07806611  0.41328264  0.55818268  1  -1.062906  0  -0.210383  -0.179391  0  2.592526  0
O  O154  1  0.45305958  0.36296101  0.74502347  1  -1.064218  0  -0.213215  -0.187861  0  2.552626  0
O  O155  1  0.36570109  0.38014868  0.24513517  1  -1.070826  0  -0.217869  -0.199644  0  2.526539  0
O  O156  1  0.32397811  0.85568365  0.37897088  1  -1.065872  0  -0.211495  -0.177176  0  2.553576  0
O  O157  1  0.65537582  0.89638079  0.57469240  1  -1.068163  0  -0.21432  -0.184255  0  2.555269  0
