# generated using pymatgen
data_AlH18C30N7O6
_symmetry_space_group_name_H-M   'P 1'
_cell_length_a   3.93058047
_cell_length_b   18.19658352
_cell_length_c   18.11655980
_cell_angle_alpha   121.05906889
_cell_angle_beta   96.87573221
_cell_angle_gamma   94.38350837
_symmetry_Int_Tables_number   1
_chemical_formula_structural   AlH18C30N7O6
_chemical_formula_sum   'Al1 H18 C30 N7 O6'
_cell_volume   1087.35975531
_cell_formula_units_Z   1
loop_
 _symmetry_equiv_pos_site_id
 _symmetry_equiv_pos_as_xyz
  1  'x, y, z'
loop_
 _atom_site_type_symbol
 _atom_site_label
 _atom_site_symmetry_multiplicity
 _atom_site_fract_x
 _atom_site_fract_y
 _atom_site_fract_z
 _atom_site_occupancy
 _atom_site_pbe_bader_charge
 _atom_site_pbe_bader_spin_density
 _atom_site_pbe_cm5_charge
 _atom_site_pbe_ddec_charge
 _atom_site_pbe_ddec_spin_density
 _atom_site_pbe_ddec_sum_bond_order
 _atom_site_pbe_magmom
Al  Al0  1  0.99264872  0.99903748  0.49465598  1  2.501237  0  0.424222  1.582286  0  2.588957  0
H  H1  1  0.45692712  0.31330502  0.41738957  1  0.080949  0  0.108844  0.113276  0  1.002079  0
H  H2  1  0.71569146  0.08459099  0.89697172  1  0.085445  0  0.109776  0.116512  0  0.99708  0
H  H3  1  0.53656244  0.60342734  0.18717993  1  0.089621  0  0.110065  0.115596  0  1.002405  0
H  H4  1  0.56135458  0.31700696  0.90014301  1  0.123083  0  0.108177  0.115815  0  1.009512  0
H  H5  1  0.72353591  0.00837133  0.73562857  1  0.101932  0  0.107781  0.110169  0  0.988084  0
H  H6  1  0.52608784  0.76391180  0.26901413  1  0.065813  0  0.109324  0.114085  0  0.985252  0
H  H7  1  0.38757006  0.60090739  0.41670597  1  0.080021  0  0.107431  0.116172  0  1.005181  0
H  H8  1  0.54865124  0.07882338  0.18101932  1  0.097289  0  0.107796  0.114725  0  1.006954  0
H  H9  1  0.45382538  0.23284381  0.49541760  1  0.087615  0  0.107548  0.110643  0  0.982548  0
H  H10  1  0.26494660  0.93057444  0.20717240  1  0.04653  0  0.093382  0.130344  0  1.003402  0
H  H11  1  0.63555606  0.94644242  0.28286486  1  0.054662  0  0.09709  0.143604  0  1.013576  0
H  H12  1  0.68510985  0.95303306  0.18999714  1  0.037816  0  0.093167  0.128646  0  1.003136  0
H  H13  1  0.07636466  0.77665666  0.53100612  1  0.054412  0  0.095439  0.141033  0  1.011638  0
H  H14  1  0.49650971  0.83730568  0.56445407  1  0.045161  0  0.095562  0.139229  0  1.002675  0
H  H15  1  0.43761384  0.73374319  0.55369599  1  0.036862  0  0.093204  0.127978  0  0.996169  0
H  H16  1  0.25239488  0.24883294  0.70198628  1  0.046123  0  0.096052  0.138966  0  1.006994  0
H  H17  1  0.66528649  0.23691921  0.67342990  1  0.028751  0  0.094279  0.134402  0  1.011108  0
H  H18  1  0.61771172  0.32733604  0.77643333  1  0.036379  0  0.094176  0.129485  0  0.993705  0
C  C19  1  0.48216057  0.06462766  0.42930505  1  1.589018  0  0.280537  0.663709  0  4.05503  0
C  C20  1  0.58532056  0.06776343  0.63027205  1  1.574434  0  0.277667  0.65602  0  4.05838  0
C  C21  1  0.42502350  0.86557696  0.42899035  1  1.569381  0  0.278894  0.65711  0  4.050555  0
C  C22  1  0.47315141  0.24426053  0.38330226  1  -0.00118  0  -0.07652  -0.09447  0  3.965192  0
C  C23  1  0.50138610  0.20026032  0.29436827  1  0.003159  0  -0.00544  0.00783  0  3.985574  0
C  C24  1  0.68293938  0.11797676  0.86173279  1  0.07559  0  -0.078402  -0.102272  0  3.959998  0
C  C25  1  0.63318547  0.20517410  0.90736723  1  -0.069901  0  -0.003113  0.016702  0  3.978854  0
C  C26  1  0.45539724  0.59280098  0.29710268  1  -0.040966  0  -0.001845  0.017847  0  3.975949  0
C  C27  1  0.49496713  0.63835054  0.25457301  1  0.050109  0  -0.077189  -0.098424  0  3.964728  0
C  C28  1  0.59255098  0.24889880  0.86267600  1  -0.042535  0  -0.075691  -0.153718  0  3.900259  0
C  C29  1  0.58286338  0.20719158  0.77263753  1  -0.021687  0  0.004667  0.15963  0  3.935245  0
C  C30  1  0.62745675  0.11897330  0.72741776  1  0.021809  0  -0.002494  -0.085151  0  3.904566  0
C  C31  1  0.68617032  0.07608901  0.77252881  1  -0.086805  0  -0.078262  -0.086192  0  3.984308  0
C  C32  1  0.48686288  0.72678489  0.29986561  1  -0.032127  0  -0.079091  -0.086726  0  3.989174  0
C  C33  1  0.42805010  0.77068837  0.38647111  1  -0.047201  0  -0.002946  -0.087564  0  3.902492  0
C  C34  1  0.39008632  0.72620244  0.43060789  1  -0.029946  0  0.005506  0.161265  0  3.933049  0
C  C35  1  0.40783229  0.63733092  0.38447735  1  0.042758  0  -0.076191  -0.156928  0  3.894898  0
C  C36  1  0.52279755  0.11129653  0.24969998  1  -0.055436  0  -0.074247  -0.149333  0  3.900204  0
C  C37  1  0.51084799  0.06449707  0.29102982  1  -0.037359  0  0.000377  0.152954  0  3.941937  0
C  C38  1  0.48639466  0.11013227  0.38041737  1  -0.041276  0  0.002021  -0.072843  0  3.904317  0
C  C39  1  0.47084524  0.19935008  0.42611946  1  0.045257  0  -0.082893  -0.099379  0  4.000828  0
C  C40  1  0.47409992  0.37480974  0.25346273  1  1.546087  0  0.356375  0.508854  0  4.08566  0
C  C41  1  0.57773449  0.24455328  0.12313651  1  1.53396  0  0.356216  0.506144  0  4.089414  0
C  C42  1  0.51096059  0.24727528  0.24843745  1  1.111397  0  0.262364  0.397453  0  4.027921  0
C  C43  1  0.47359001  0.49904674  0.25015894  1  1.112797  0  0.259596  0.390744  0  4.036876  0
C  C44  1  0.54829169  0.37811819  0.12343020  1  1.593065  0  0.356067  0.50588  0  4.094988  0
C  C45  1  0.61380587  0.25117758  0.00127240  1  1.118536  0  0.259013  0.388912  0  4.039461  0
C  C46  1  0.52634509  0.96862458  0.24055447  1  -0.0684  0  -0.237654  -0.415902  0  3.954463  0
C  C47  1  0.34944113  0.77105507  0.52509945  1  -0.071936  0  -0.239161  -0.421272  0  3.965408  0
C  C48  1  0.52889351  0.25772381  0.72870059  1  -0.022899  0  -0.238417  -0.413848  0  3.965374  0
N  N49  1  0.53310834  0.33248146  0.16665662  1  -1.194988  0  -0.193558  -0.240045  0  3.553496  0
N  N50  1  0.57356886  0.20323426  0.16596264  1  -1.221642  0  -0.319138  -0.443942  0  3.21753  0
N  N51  1  0.45585605  0.33040982  0.29297615  1  -1.220761  0  -0.32023  -0.447174  0  3.216957  0
N  N52  1  0.43696111  0.45846893  0.29401661  1  -1.18826  0  -0.323624  -0.452829  0  3.212148  0
N  N53  1  0.52598088  0.46244554  0.16704818  1  -1.209635  0  -0.318847  -0.443681  0  3.224054  0
N  N54  1  0.62301499  0.20477645  0.03995327  1  -1.198494  0  -0.322627  -0.450497  0  3.210198  0
N  N55  1  0.58427837  0.33593841  0.03982334  1  -1.24053  0  -0.320666  -0.445756  0  3.2273  0
O  O56  1  0.21124464  0.90105588  0.47959148  1  -1.251166  0  -0.224449  -0.574096  0  2.364278  0
O  O57  1  0.21219421  0.01060080  0.41098913  1  -1.249965  0  -0.228367  -0.580595  0  2.36276  0
O  O58  1  0.33748676  0.08186201  0.58906190  1  -1.265167  0  -0.232941  -0.601125  0  2.432193  0
O  O59  1  0.64348452  0.90697421  0.41055268  1  -1.272873  0  -0.244654  -0.623195  0  2.409444  0
O  O60  1  0.78513524  0.01267846  0.59308477  1  -1.250684  0  -0.236837  -0.592216  0  2.340713  0
O  O61  1  0.75052604  0.08346336  0.48679656  1  -1.253239  0  -0.237119  -0.59485  0  2.353571  0
