# generated using pymatgen
data_ZnH16C27NO4
_symmetry_space_group_name_H-M   'P 1'
_cell_length_a   15.44377280
_cell_length_b   15.44346151
_cell_length_c   17.68553996
_cell_angle_alpha   115.87625777
_cell_angle_beta   115.87670921
_cell_angle_gamma   90.01563183
_symmetry_Int_Tables_number   1
_chemical_formula_structural   ZnH16C27NO4
_chemical_formula_sum   'Zn4 H64 C108 N4 O16'
_cell_volume   3318.51593248
_cell_formula_units_Z   4
loop_
 _symmetry_equiv_pos_site_id
 _symmetry_equiv_pos_as_xyz
  1  'x, y, z'
loop_
 _atom_site_type_symbol
 _atom_site_label
 _atom_site_symmetry_multiplicity
 _atom_site_fract_x
 _atom_site_fract_y
 _atom_site_fract_z
 _atom_site_occupancy
 _atom_site_pbe_bader_charge
 _atom_site_pbe_bader_spin_density
 _atom_site_pbe_cm5_charge
 _atom_site_pbe_ddec_charge
 _atom_site_pbe_ddec_spin_density
 _atom_site_pbe_ddec_sum_bond_order
 _atom_site_pbe_magmom
Zn  Zn0  1  0.05010615  0.05012869  0.10022466  1  1.294395  0  0.672427  0.799224  0  2.456169  0
Zn  Zn1  1  0.45010106  0.45004804  0.90013715  1  1.288239  0  0.67156  0.798993  0  2.460124  0
Zn  Zn2  1  0.94999321  0.95000998  0.90000510  1  1.283467  0  0.671407  0.79924  0  2.457586  0
Zn  Zn3  1  0.54987952  0.54988311  0.09978789  1  1.280638  0  0.671606  0.799819  0  2.458448  0
H  H4  1  0.16615316  0.28447830  0.17752414  1  0.099341  0  0.095195  0.103335  0  1.060661  0
H  H5  1  0.25347045  0.45153425  0.31859639  1  0.054167  0  0.091997  0.086065  0  1.008969  0
H  H6  1  0.06096721  0.24320852  0.25215497  1  0.150652  0  0.133048  0.112833  0  0.973391  0
H  H7  1  0.15059356  0.33996925  0.43274545  1  0.094685  0  0.118118  0.124221  0  0.983865  0
H  H8  1  0.01124205  0.89310426  0.17771187  1  0.088348  0  0.094787  0.102475  0  1.060726  0
H  H9  1  0.06497908  0.86695759  0.31869783  1  0.05373  0  0.091903  0.086084  0  1.008616  0
H  H10  1  0.19116708  0.00897512  0.25212952  1  0.157519  0  0.132978  0.113217  0  0.972819  0
H  H11  1  0.28201263  0.09273212  0.43271222  1  0.075098  0  0.117935  0.124431  0  0.983589  0
H  H12  1  0.30193190  0.03038439  0.12696389  1  0.086039  0  0.09896  0.111211  0  1.023268  0
H  H13  1  0.48358769  0.09821669  0.22595923  1  0.032159  0  0.09584  0.091314  0  1.00237  0
H  H14  1  0.82529625  0.09681010  0.12721805  1  0.082901  0  0.098839  0.110876  0  1.022767  0
H  H15  1  0.74293323  0.12817743  0.22648888  1  0.061824  0  0.095894  0.091785  0  1.0012  0
H  H16  1  0.48757471  0.21504755  0.82377496  1  0.09767  0  0.097996  0.108254  0  1.04867  0
H  H17  1  0.43404113  0.04911865  0.68197275  1  0.048351  0  0.093276  0.088004  0  1.005054  0
H  H18  1  0.33590964  0.60847207  0.82364156  1  0.102854  0  0.09806  0.108341  0  1.04846  0
H  H19  1  0.24747131  0.63241610  0.68174113  1  0.05959  0  0.09368  0.088588  0  1.005389  0
H  H20  1  0.67541646  0.46953393  0.87279459  1  0.088919  0  0.096312  0.104554  0  1.03484  0
H  H21  1  0.75841122  0.40195130  0.77374866  1  0.067494  0  0.093782  0.088537  0  1.005212  0
H  H22  1  0.50027714  0.32856107  0.74821308  1  0.124599  0  0.133123  0.108901  0  0.973682  0
H  H23  1  0.41572479  0.23655441  0.56780122  1  0.091281  0  0.118712  0.125406  0  0.981799  0
H  H24  1  0.19750798  0.40347181  0.87297518  1  0.077876  0  0.096073  0.103898  0  1.034546  0
H  H25  1  0.01547672  0.37198656  0.77378109  1  0.020256  0  0.094056  0.088921  0  1.003352  0
H  H26  1  0.24816649  0.41953486  0.74836175  1  0.141387  0  0.132831  0.108421  0  0.972609  0
H  H27  1  0.15216396  0.33127608  0.56799855  1  0.103505  0  0.118817  0.125072  0  0.983155  0
H  H28  1  0.90414993  0.69821620  0.87387422  1  0.074994  0  0.095971  0.103297  0  1.035634  0
H  H29  1  0.87284538  0.51630030  0.77430546  1  0.027999  0  0.094112  0.089099  0  1.004317  0
H  H30  1  0.91532642  0.74650570  0.74792021  1  0.142815  0  0.133198  0.108269  0  0.972248  0
H  H31  1  0.82794267  0.65094765  0.56789475  1  0.097565  0  0.118233  0.12457  0  0.985749  0
H  H32  1  0.96970847  0.17556159  0.87357837  1  0.083689  0  0.095782  0.103078  0  1.036447  0
H  H33  1  0.90153576  0.25804698  0.77415397  1  0.002675  0  0.094096  0.088878  0  1.005557  0
H  H34  1  0.83247472  0.00138117  0.74789557  1  0.151762  0  0.13305  0.108634  0  0.972278  0
H  H35  1  0.73983785  0.91687000  0.56783762  1  0.097135  0  0.118527  0.124651  0  0.986517  0
H  H36  1  0.71458894  0.98770523  0.82294494  1  0.104458  0  0.097803  0.108238  0  1.046882  0
H  H37  1  0.54847383  0.93467192  0.68153092  1  0.058393  0  0.094182  0.089956  0  1.003878  0
H  H38  1  0.10809822  0.83502294  0.82285663  1  0.107662  0  0.098011  0.108598  0  1.047713  0
H  H39  1  0.13255454  0.74640941  0.68128105  1  0.02445  0  0.094376  0.0904  0  1.003792  0
H  H40  1  0.53016623  0.80232125  0.12633990  1  0.084742  0  0.096447  0.10432  0  1.036129  0
H  H41  1  0.59795110  0.98429916  0.22563190  1  0.015963  0  0.094706  0.089707  0  1.004376  0
H  H42  1  0.66875337  0.75287430  0.25169606  1  0.138059  0  0.1332  0.10943  0  0.971982  0
H  H43  1  0.76146704  0.84848619  0.43178172  1  0.11063  0  0.118791  0.125342  0  0.983863  0
H  H44  1  0.59639726  0.32419580  0.12661480  1  0.081171  0  0.096143  0.104323  0  1.034498  0
H  H45  1  0.62818017  0.24173825  0.22613652  1  0.058191  0  0.094538  0.089477  0  1.0025  0
H  H46  1  0.58306967  0.49892214  0.25181628  1  0.117405  0  0.133509  0.10964  0  0.971883  0
H  H47  1  0.67050167  0.58347840  0.43189724  1  0.075306  0  0.118816  0.125643  0  0.984489  0
H  H48  1  0.39115403  0.51249902  0.17601452  1  0.094551  0  0.09778  0.10833  0  1.048088  0
H  H49  1  0.36675799  0.56616503  0.31772616  1  0.032167  0  0.09368  0.088397  0  1.003724  0
H  H50  1  0.78476601  0.66328939  0.17591260  1  0.093405  0  0.097611  0.107951  0  1.048088  0
H  H51  1  0.95083233  0.75124474  0.31764522  1  0.044847  0  0.094051  0.08901  0  1.004545  0
H  H52  1  0.21401565  0.01137690  0.95347395  1  0.068262  0  0.098017  0.102742  0  1.034702  0
H  H53  1  0.34620681  0.95412291  0.91514375  1  0.059013  0  0.096863  0.09482  0  1.020096  0
H  H54  1  0.73956964  0.94212443  0.95357769  1  0.074643  0  0.097914  0.102949  0  1.034875  0
H  H55  1  0.56908906  0.96111331  0.91519551  1  0.079166  0  0.096753  0.09509  0  1.02037  0
H  H56  1  0.05805906  0.78595117  0.04687545  1  0.071781  0  0.097023  0.101864  0  1.03819  0
H  H57  1  0.03967185  0.65458231  0.08620444  1  0.063909  0  0.09713  0.095808  0  1.018912  0
H  H58  1  0.98850359  0.26062201  0.04607018  1  0.071009  0  0.097327  0.102057  0  1.038193  0
H  H59  1  0.04583266  0.43101553  0.08435012  1  0.056552  0  0.096833  0.095356  0  1.019805  0
H  H60  1  0.76070182  0.48858782  0.04632144  1  0.074115  0  0.098397  0.103733  0  1.034475  0
H  H61  1  0.93104328  0.54576489  0.08433004  1  0.056955  0  0.09692  0.095244  0  1.019976  0
H  H62  1  0.28605449  0.55824503  0.04714411  1  0.072684  0  0.097855  0.102956  0  1.034602  0
H  H63  1  0.15444130  0.53978806  0.08620030  1  0.058919  0  0.097399  0.096177  0  1.018818  0
H  H64  1  0.51134140  0.71400474  0.95309902  1  0.071889  0  0.097438  0.10269  0  1.034409  0
H  H65  1  0.45419754  0.84633493  0.91498474  1  0.057947  0  0.096611  0.09485  0  1.01976  0
H  H66  1  0.44176922  0.23922957  0.95317273  1  0.075074  0  0.097421  0.102401  0  1.035477  0
H  H67  1  0.46081947  0.06878957  0.91496619  1  0.08051  0  0.096838  0.095201  0  1.020043  0
C  C68  1  0.23085059  0.30242069  0.09782146  1  -0.1  0  -0.005006  0.039629  0  3.867069  0
C  C69  1  0.21635440  0.33363153  0.17754984  1  0.006611  0  -0.103994  -0.135308  0  4.007942  0
C  C70  1  0.26581205  0.42800135  0.25697988  1  -0.077873  0  -0.106391  -0.100432  0  4.084565  0
C  C71  1  0.11163610  0.21393520  0.29582718  1  0.540474  0  0.06744  0.113581  0  3.896926  0
C  C72  1  0.16038199  0.26613316  0.39560033  1  -0.05127  0  -0.074347  -0.173805  0  3.938165  0
C  C73  1  0.86689603  0.79539889  0.09791667  1  0.006047  0  -0.004667  0.041017  0  3.867668  0
C  C74  1  0.96107135  0.84391079  0.17768229  1  -0.06273  0  -0.103549  -0.134459  0  4.006741  0
C  C75  1  0.99103425  0.82886160  0.25705839  1  -0.026757  0  -0.107015  -0.101093  0  4.085813  0
C  C76  1  0.18413899  0.08192015  0.29579378  1  0.4626  0  0.067511  0.113073  0  3.897234  0
C  C77  1  0.23511956  0.12945064  0.39556139  1  0.038674  0  -0.073966  -0.173695  0  3.938777  0
C  C78  1  0.31344544  0.87805561  0.07126203  1  -0.046165  0  -0.006142  0.037585  0  3.890167  0
C  C79  1  0.35140254  0.98023571  0.12744431  1  0.047368  0  -0.099865  -0.134253  0  4.004615  0
C  C80  1  0.45403194  0.01820168  0.18341569  1  0.009399  0  -0.102125  -0.093021  0  4.06336  0
C  C81  1  0.75794877  0.19332481  0.07140447  1  0.00837  0  -0.005968  0.035682  0  3.886518  0
C  C82  1  0.77627466  0.14740617  0.12767723  1  0.007934  0  -0.099445  -0.132619  0  3.998936  0
C  C83  1  0.72981753  0.16555599  0.18384154  1  -0.040963  0  -0.102471  -0.094198  0  4.060654  0
C  C84  1  0.63300531  0.19779315  0.90221115  1  -0.008777  0  -0.006001  0.038472  0  3.871783  0
C  C85  1  0.53844377  0.16664660  0.82293329  1  -0.038457  0  -0.104811  -0.141168  0  4.013579  0
C  C86  1  0.50837037  0.07259441  0.74307340  1  -0.007966  0  -0.106574  -0.100419  0  4.085736  0
C  C87  1  0.26898706  0.70423159  0.90211937  1  0.010997  0  -0.005527  0.039873  0  3.873246  0
C  C88  1  0.28418792  0.65602512  0.82279860  1  -0.03335  0  -0.10468  -0.14121  0  4.016973  0
C  C89  1  0.23432599  0.67013452  0.74288565  1  -0.041706  0  -0.107072  -0.101368  0  4.0877  0
C  C90  1  0.74220824  0.62179651  0.92839762  1  -0.070363  0  -0.004719  0.040827  0  3.882804  0
C  C91  1  0.72435242  0.51965855  0.87222226  1  0.033688  0  -0.099344  -0.132293  0  4.003188  0
C  C92  1  0.77114644  0.48193351  0.81636093  1  -0.072845  0  -0.102905  -0.093634  0  4.063107  0
C  C93  1  0.42321282  0.32661095  0.70473780  1  0.52935  0  0.068162  0.116539  0  3.899702  0
C  C94  1  0.37557615  0.27530210  0.60498442  1  -0.049867  0  -0.074114  -0.173382  0  3.936631  0
C  C95  1  0.18620301  0.30665902  0.92840016  1  -0.076312  0  -0.004796  0.039841  0  3.88196  0
C  C96  1  0.14795433  0.35267474  0.87226381  1  -0.015184  0  -0.099234  -0.131108  0  4.000665  0
C  C97  1  0.04530631  0.33454977  0.81633556  1  -0.019105  0  -0.103308  -0.094276  0  4.062127  0
C  C98  1  0.28170629  0.37797047  0.70483622  1  0.433797  0  0.068309  0.117596  0  3.901356  0
C  C99  1  0.22948392  0.32959829  0.60509001  1  0.022509  0  -0.074274  -0.173479  0  3.937545  0
C  C100  1  0.80690170  0.68641394  0.92868938  1  -0.064091  0  -0.004339  0.039172  0  3.88275  0
C  C101  1  0.85318827  0.64846093  0.87279426  1  -0.048366  0  -0.100372  -0.131365  0  4.004141  0
C  C102  1  0.83511614  0.54588220  0.81661893  1  -0.023223  0  -0.103989  -0.096414  0  4.064889  0
C  C103  1  0.87500948  0.78056482  0.70449769  1  0.594165  0  0.068787  0.119093  0  3.900102  0
C  C104  1  0.82592539  0.72815819  0.60474600  1  -0.121299  0  -0.074051  -0.174193  0  3.936974  0
C  C105  1  0.12178261  0.24222387  0.92856033  1  -0.054048  0  -0.004699  0.039647  0  3.884143  0
C  C106  1  0.01961877  0.22431650  0.87260825  1  0.02309  0  -0.10004  -0.1317  0  4.005718  0
C  C107  1  0.98157283  0.27081035  0.81651649  1  -0.017271  0  -0.103675  -0.095605  0  4.065453  0
C  C108  1  0.82936440  0.92389967  0.70448776  1  0.585905  0  0.068865  0.117938  0  3.899147  0
C  C109  1  0.77871016  0.87654496  0.60473955  1  -0.12962  0  -0.07389  -0.173096  0  3.93755  0
C  C110  1  0.69762966  0.13311819  0.90204762  1  -0.103651  0  -0.005776  0.039018  0  3.869864  0
C  C111  1  0.66628899  0.03869477  0.82251944  1  -0.037798  0  -0.104006  -0.139116  0  4.009316  0
C  C112  1  0.57209052  0.00884046  0.74285619  1  -0.117544  0  -0.106464  -0.102121  0  4.084497  0
C  C113  1  0.20422981  0.76876622  0.90197213  1  -0.120615  0  -0.005946  0.039371  0  3.873488  0
C  C114  1  0.15596419  0.78359677  0.82240900  1  -0.008233  0  -0.104111  -0.139948  0  4.014484  0
C  C115  1  0.17038058  0.73366723  0.74266638  1  -0.108188  0  -0.106985  -0.102194  0  4.08557  0
C  C116  1  0.37799009  0.81361822  0.07125757  1  -0.155121  0  -0.005677  0.039188  0  3.886867  0
C  C117  1  0.48011136  0.85185339  0.12727587  1  0.050527  0  -0.100446  -0.133307  0  4.009821  0
C  C118  1  0.51794509  0.95448866  0.18327880  1  -0.084071  0  -0.103072  -0.095278  0  4.066909  0
C  C119  1  0.67124023  0.71905682  0.29515467  1  0.584888  0  0.068366  0.116815  0  3.903453  0
C  C120  1  0.72192208  0.77149555  0.39490313  1  -0.145438  0  -0.074061  -0.172816  0  3.937161  0
C  C121  1  0.69340247  0.25776708  0.07143106  1  -0.106637  0  -0.00493  0.040104  0  3.881851  0
C  C122  1  0.64738980  0.27559712  0.12753829  1  -0.002165  0  -0.099941  -0.132835  0  4.002467  0
C  C123  1  0.66574964  0.22911000  0.18369962  1  -0.122093  0  -0.103768  -0.095777  0  4.06221  0
C  C124  1  0.62408840  0.57617608  0.29524352  1  0.548941  0  0.067908  0.116233  0  3.899813  0
C  C125  1  0.67320106  0.62355352  0.39498686  1  -0.025736  0  -0.073716  -0.172426  0  3.938221  0
C  C126  1  0.29528518  0.36707622  0.09758930  1  -0.023677  0  -0.005372  0.040136  0  3.871983  0
C  C127  1  0.34336858  0.46170595  0.17677335  1  -0.014322  0  -0.104952  -0.1429  0  4.016515  0
C  C128  1  0.32904358  0.49188119  0.25659030  1  -0.083725  0  -0.106835  -0.09918  0  4.085314  0
C  C129  1  0.80221207  0.73044918  0.09760181  1  -0.133518  0  -0.005733  0.037947  0  3.874585  0
C  C130  1  0.83328884  0.71493684  0.17676244  1  0.044793  0  -0.105455  -0.142032  0  4.01561  0
C  C131  1  0.92741110  0.76450144  0.25657259  1  -0.103016  0  -0.106113  -0.099329  0  4.084235  0
C  C132  1  0.22366749  0.22368659  0.44737959  1  -0.121358  0  0.017404  0.107529  0  3.996034  0
C  C133  1  0.27664291  0.27660264  0.55331958  1  0.044647  0  0.01897  0.106355  0  3.994385  0
C  C134  1  0.77640057  0.77640795  0.55280602  1  -0.096166  0  0.017267  0.106241  0  3.993644  0
C  C135  1  0.72350113  0.72347710  0.44683179  1  0.04578  0  0.017997  0.104851  0  3.995532  0
C  C136  1  0.17534360  0.20508240  0.00124399  1  0.031308  0  0.008374  -0.068689  0  3.793168  0
C  C137  1  0.25465341  0.15893521  0.97785661  1  0.012245  0  -0.006619  0.036988  0  3.912254  0
C  C138  1  0.10924072  0.12665792  0.99637927  1  1.584311  0  0.225956  0.592984  0  4.111057  0
C  C139  1  0.26464153  0.06235072  0.95536711  1  -0.059943  0  -0.097944  -0.129975  0  3.992582  0
C  C140  1  0.33920595  0.02990824  0.93308266  1  -0.011962  0  -0.096203  -0.082675  0  4.028074  0
C  C141  1  0.82594292  0.79620506  0.00138382  1  0.025516  0  0.007716  -0.069428  0  3.797642  0
C  C142  1  0.72323153  0.81892557  0.97790738  1  -0.089903  0  -0.005565  0.037408  0  3.914592  0
C  C143  1  0.88721670  0.86975893  0.99655152  1  1.580194  0  0.225057  0.592919  0  4.112096  0
C  C144  1  0.69079809  0.89303171  0.95541574  1  -0.060493  0  -0.097721  -0.129365  0  3.992343  0
C  C145  1  0.59395747  0.90321816  0.93309304  1  -0.043673  0  -0.096619  -0.085043  0  4.030086  0
C  C146  1  0.20367789  0.82429610  0.99859040  1  0.01641  0  0.007082  -0.072071  0  3.804454  0
C  C147  1  0.18115068  0.74520185  0.02230245  1  -0.101549  0  -0.00829  0.034362  0  3.919469  0
C  C148  1  0.12998058  0.88994635  0.00333069  1  1.59305  0  0.227679  0.597177  0  4.110062  0
C  C149  1  0.10732935  0.73552910  0.04524306  1  -0.042213  0  -0.099985  -0.135742  0  4.001421  0
C  C150  1  0.09739390  0.66131055  0.06802645  1  0.018321  0  -0.096425  -0.083834  0  4.029773  0
C  C151  1  0.79488327  0.17427970  0.99858596  1  0.010833  0  0.007169  -0.070121  0  3.803537  0
C  C152  1  0.84100355  0.27697269  0.02197219  1  -0.104608  0  -0.007586  0.033489  0  3.921981  0
C  C153  1  0.87336333  0.11341744  0.00328711  1  1.595441  0  0.228474  0.597275  0  4.10973  0
C  C154  1  0.93759868  0.30941219  0.04443275  1  -0.002884  0  -0.100637  -0.135724  0  4.00083  0
C  C155  1  0.97009563  0.40624100  0.06665459  1  -0.123684  0  -0.096207  -0.083326  0  4.028222  0
C  C156  1  0.67425318  0.29495450  0.99877056  1  0.025707  0  0.007654  -0.068521  0  3.798691  0
C  C157  1  0.77690533  0.34105814  0.02201970  1  0.009402  0  -0.007194  0.035437  0  3.91697  0
C  C158  1  0.61320332  0.37337110  0.00338532  1  1.592821  0  0.226163  0.594132  0  4.112478  0
C  C159  1  0.80940142  0.43761779  0.04445482  1  0.002466  0  -0.098251  -0.130686  0  3.992392  0
C  C160  1  0.90622412  0.47004828  0.06662716  1  -0.001937  0  -0.095701  -0.082472  0  4.025902  0
C  C161  1  0.32446344  0.70376925  0.99875565  1  0.019426  0  0.007944  -0.069612  0  3.79803  0
C  C162  1  0.24527277  0.68115943  0.02235110  1  0.016557  0  -0.007678  0.035412  0  3.914624  0
C  C163  1  0.39021987  0.63003977  0.00343647  1  1.593476  0  0.22658  0.595163  0  4.111864  0
C  C164  1  0.23548938  0.60735456  0.04526156  1  -0.034937  0  -0.097231  -0.129123  0  3.991473  0
C  C165  1  0.16121587  0.59745867  0.06798690  1  -0.094417  0  -0.096302  -0.084245  0  4.027628  0
C  C166  1  0.70499301  0.67530289  0.00102315  1  0.028948  0  0.007737  -0.069811  0  3.799701  0
C  C167  1  0.65901629  0.75477745  0.97777010  1  0.010973  0  -0.007739  0.03479  0  3.915091  0
C  C168  1  0.62651933  0.60965857  0.99641141  1  1.581822  0  0.226123  0.593063  0  4.114176  0
C  C169  1  0.56239716  0.76471705  0.95516202  1  -0.063214  0  -0.098301  -0.130995  0  3.993253  0
C  C170  1  0.53000960  0.83936077  0.93299083  1  -0.013438  0  -0.095732  -0.08269  0  4.027735  0
C  C171  1  0.29601410  0.32572264  0.00106458  1  0.029096  0  0.007182  -0.070559  0  3.802107  0
C  C172  1  0.31872010  0.22300677  0.97776772  1  -0.091011  0  -0.006427  0.035052  0  3.916796  0
C  C173  1  0.36990675  0.38677995  0.99651979  1  1.589194  0  0.22594  0.59479  0  4.110368  0
C  C174  1  0.39276238  0.19052821  0.95517965  1  -0.064313  0  -0.098146  -0.129766  0  3.994493  0
C  C175  1  0.40298058  0.09370785  0.93294422  1  -0.040204  0  -0.096837  -0.085486  0  4.02966  0
N  N176  1  0.12355910  0.12359942  0.24713230  1  -1.267176  0  -0.316386  -0.19092  0  3.50566  0
N  N177  1  0.37678117  0.37659042  0.75340292  1  -1.243578  0  -0.317326  -0.192283  0  3.507946  0
N  N178  1  0.87655415  0.87659818  0.75321478  1  -1.244505  0  -0.317341  -0.193234  0  3.508043  0
N  N179  1  0.62330488  0.62326777  0.24652278  1  -1.247845  0  -0.317891  -0.193734  0  3.510097  0
O  O180  1  0.12603289  0.13181045  0.07553047  1  -1.172106  0  -0.309681  -0.536858  0  2.404486  0
O  O181  1  0.94955481  0.94377190  0.07568518  1  -1.175738  0  -0.309542  -0.536982  0  2.405947  0
O  O182  1  0.14443830  0.95314080  0.08593556  1  -1.176507  0  -0.304391  -0.542187  0  2.35089  0
O  O183  1  0.94155909  0.13287940  0.08588662  1  -1.177238  0  -0.305353  -0.542491  0  2.351995  0
O  O184  1  0.55162296  0.36865458  0.92411118  1  -1.181802  0  -0.309647  -0.543633  0  2.413417  0
O  O185  1  0.37255921  0.55544715  0.92420496  1  -1.185967  0  -0.309947  -0.544393  0  2.413539  0
O  O186  1  0.55884863  0.54588803  0.91399082  1  -1.171162  0  -0.306804  -0.533924  0  2.335352  0
O  O187  1  0.35517596  0.36818589  0.91411094  1  -1.162625  0  -0.306554  -0.534749  0  2.330969  0
O  O188  1  0.86774059  0.85534688  0.91395989  1  -1.164144  0  -0.30776  -0.537451  0  2.330092  0
O  O189  1  0.04615581  0.05849494  0.91378160  1  -1.174844  0  -0.308597  -0.537712  0  2.332962  0
O  O190  1  0.86848374  0.05139606  0.92418661  1  -1.181864  0  -0.307546  -0.54082  0  2.413875  0
O  O191  1  0.05574687  0.87288786  0.92424893  1  -1.181754  0  -0.307587  -0.540949  0  2.414446  0
O  O192  1  0.45377584  0.64472452  0.08589398  1  -1.168818  0  -0.307109  -0.535731  0  2.332392  0
O  O193  1  0.63213597  0.44121891  0.08581450  1  -1.171417  0  -0.306912  -0.535445  0  2.332966  0
O  O194  1  0.44466109  0.44813243  0.07576365  1  -1.188171  0  -0.310109  -0.544807  0  2.411829  0
O  O195  1  0.63098985  0.62753474  0.07564504  1  -1.175191  0  -0.309832  -0.543874  0  2.413205  0
