# generated using pymatgen
data_Al6H41C84N9(O7F3)4
_symmetry_space_group_name_H-M   'P 1'
_cell_length_a   12.61220398
_cell_length_b   12.95272810
_cell_length_c   27.77242905
_cell_angle_alpha   89.50479883
_cell_angle_beta   88.09251825
_cell_angle_gamma   60.05993729
_symmetry_Int_Tables_number   1
_chemical_formula_structural   Al6H41C84N9(O7F3)4
_chemical_formula_sum   'Al6 H41 C84 N9 O28 F12'
_cell_volume   3929.15903507
_cell_formula_units_Z   1
loop_
 _symmetry_equiv_pos_site_id
 _symmetry_equiv_pos_as_xyz
  1  'x, y, z'
loop_
 _atom_site_type_symbol
 _atom_site_label
 _atom_site_symmetry_multiplicity
 _atom_site_fract_x
 _atom_site_fract_y
 _atom_site_fract_z
 _atom_site_occupancy
 _atom_site_pbe_bader_charge
 _atom_site_pbe_bader_spin_density
 _atom_site_pbe_cm5_charge
 _atom_site_pbe_ddec_charge
 _atom_site_pbe_ddec_spin_density
 _atom_site_pbe_ddec_sum_bond_order
 _atom_site_pbe_magmom
Al  Al0  1  0.19424937  0.40976705  0.49261101  1  2.48853  0  0.39587  1.68881  0  2.550608  0
Al  Al1  1  0.93223844  0.64747465  0.49785593  1  2.478785  0  0.499403  1.652978  0  2.522339  0
Al  Al2  1  0.93479801  0.41664227  0.49756419  1  2.484474  0  0.507341  1.666108  0  2.506851  0
Al  Al3  1  0.15764304  0.90746803  0.98401995  1  2.491548  0  0.397228  1.68754  0  2.555026  0
Al  Al4  1  0.40577275  0.91712179  0.98332591  1  2.479086  0  0.501925  1.658452  0  2.512145  0
Al  Al5  1  0.42617161  0.67597075  0.98483120  1  2.477585  0  0.509705  1.665198  0  2.49365  0
H  H6  1  0.72232738  0.82702520  0.20897998  1  0.078121  0  0.107814  0.110979  0  0.978535  0
H  H7  1  0.33737856  0.96986145  0.21720410  1  0.122851  0  0.102727  0.125471  0  1.01194  0
H  H8  1  0.32293924  0.45245826  0.21557604  1  0.052599  0  0.099478  0.089642  0  0.997409  0
H  H9  1  0.35002771  0.61073282  0.27793586  1  0.071053  0  0.101287  0.092186  0  0.995861  0
H  H10  1  0.09795854  0.51323450  0.26405811  1  0.076192  0  0.096439  0.086378  0  1.014088  0
H  H11  1  0.97342901  0.70105097  0.19755823  1  0.083599  0  0.103055  0.093723  0  0.999001  0
H  H12  1  0.99826135  0.85750220  0.26021441  1  0.068069  0  0.103988  0.095034  0  0.993274  0
H  H13  1  0.22794741  0.79541081  0.21118710  1  0.080611  0  0.099846  0.094577  0  1.010955  0
H  H14  1  0.42748367  0.88747850  0.84849330  1  0.070242  0  0.102552  0.108912  0  1.042419  0
H  H15  1  0.76561386  0.51348423  0.77735230  1  0.071591  0  0.101701  0.109152  0  1.007273  0
H  H16  1  0.73192013  0.53292263  0.86640938  1  0.079064  0  0.110113  0.119523  0  0.986963  0
H  H17  1  0.93596196  0.33676117  0.63321868  1  0.154798  0  0.115309  0.143506  0  1.011142  0
H  H18  1  0.88873126  0.59908421  0.24638807  1  0.112329  0  0.098206  0.100663  0  1.032725  0
H  H19  1  0.01674971  0.14255559  0.77604214  1  0.094584  0  0.104357  0.119026  0  1.004774  0
H  H20  1  0.05588949  0.07717172  0.86129411  1  0.104283  0  0.118797  0.130779  0  0.980901  0
H  H21  1  0.35100568  0.11104547  0.69949566  1  0.121337  0  0.110233  0.136207  0  1.00104  0
H  H22  1  0.31683683  0.56455649  0.59776752  1  0.119755  0  0.117023  0.136711  0  0.972741  0
H  H23  1  0.16618661  0.86692640  0.84787414  1  0.086733  0  0.109031  0.125294  0  1.020313  0
H  H24  1  0.00427780  0.69919503  0.73125360  1  0.099865  0  0.115917  0.145504  0  0.970722  0
H  H25  1  0.61132288  0.53727013  0.27305265  1  0.092996  0  0.114752  0.133865  0  0.965901  0
H  H26  1  0.97214778  0.17067874  0.21316652  1  0.093647  0  0.119511  0.141098  0  0.956929  0
H  H27  1  0.41871348  0.17342374  0.25169402  1  0.417706  0  0.307388  0.296255  0  0.932102  0
H  H28  1  0.35159070  0.19924993  0.30627452  1  0.443706  0  0.307195  0.300192  0  0.935347  0
H  H29  1  0.67792140  0.90450518  0.63180116  1  0.467986  0  0.316597  0.31454  0  0.926003  0
H  H30  1  0.72565905  0.82359354  0.57800616  1  0.515723  0  0.314987  0.325131  0  0.956498  0
H  H31  1  0.50237963  0.96738449  0.28514240  1  0.456309  0  0.270346  0.268458  0  1.054431  0
H  H32  1  0.53583846  0.87303813  0.33179122  1  0.419233  0  0.294961  0.288598  0  0.959454  0
H  H33  1  0.43307069  0.87292204  0.71848488  1  0.439089  0  0.299847  0.294058  0  0.969647  0
H  H34  1  0.36198487  0.95545052  0.76940431  1  0.450367  0  0.291778  0.280327  0  1.004091  0
H  H35  1  0.39540356  0.12087524  0.89982788  1  0.514676  0  0.31814  0.330907  0  0.949136  0
H  H36  1  0.42214591  0.18397017  0.84741475  1  0.485181  0  0.320979  0.322924  0  0.927229  0
H  H37  1  0.14134263  0.85533670  0.71777975  1  0.416732  0  0.300586  0.295516  0  0.952984  0
H  H38  1  0.13334171  0.94121973  0.76524293  1  0.43824  0  0.287617  0.279  0  1.004554  0
H  H39  1  0.42655459  0.56753102  0.71705585  1  0.451279  0  0.294804  0.290874  0  0.973698  0
H  H40  1  0.46590193  0.53009119  0.65844281  1  0.440557  0  0.302536  0.30061  0  0.948684  0
H  H41  1  0.82651416  0.40061565  0.20262487  1  0.438649  0  0.285827  0.28052  0  0.991224  0
H  H42  1  0.80972670  0.48256838  0.15349333  1  0.403937  0  0.299238  0.296336  0  0.945562  0
H  H43  1  0.11774158  0.93323666  0.26685117  1  0.412096  0  0.285969  0.277251  0  1.010816  0
H  H44  1  0.17620919  0.95596836  0.31591312  1  0.426226  0  0.300384  0.295914  0  0.944333  0
H  H45  1  0.39553801  0.28747784  0.51605664  1  0.584102  0  0.29074  0.381691  0  0.926277  0
H  H46  1  0.96244749  0.95911114  0.95800724  1  0.570236  0  0.290613  0.380189  0  0.927553  0
C  C47  1  0.10520579  0.62179336  0.42921971  1  1.65733  0  0.281249  0.711818  0  4.163833  0
C  C48  1  0.75775929  0.61982068  0.37949057  1  0.145873  0  -0.045834  -0.218674  0  3.95926  0
C  C49  1  0.54620226  0.72630152  0.23870921  1  0.556388  0  0.104683  0.197941  0  3.700049  0
C  C50  1  0.63472850  0.70698539  0.19327803  1  0.085172  0  -0.002229  -0.002988  0  3.821796  0
C  C51  1  0.63564426  0.60181902  0.25874484  1  -0.053079  0  -0.080827  -0.216301  0  3.657856  0
C  C52  1  0.70009713  0.65720458  0.28826141  1  0.095595  0  0.005283  0.08376  0  3.815189  0
C  C53  1  0.72514441  0.57891347  0.21462653  1  0.480816  0  0.102752  0.273321  0  3.765032  0
C  C54  1  0.79023777  0.63683776  0.24344456  1  -0.068061  0  -0.075139  -0.143919  0  3.600409  0
C  C55  1  0.60651602  0.72478093  0.14403616  1  -0.162283  0  -0.016967  0.008001  0  4.067071  0
C  C56  1  0.73233632  0.63501728  0.33701312  1  -0.396294  0  -0.014145  0.001569  0  4.053995  0
C  C57  1  0.14585310  0.07462981  0.26220758  1  0.472572  0  0.103616  0.281444  0  3.761418  0
C  C58  1  0.80562844  0.59581252  0.42692609  1  1.626202  0  0.277933  0.721982  0  4.151971  0
C  C59  1  0.05483512  0.16760402  0.22577226  1  -0.036074  0  -0.076705  -0.214294  0  3.615375  0
C  C60  1  0.19167308  0.10050299  0.09882459  1  0.089917  0  -0.035164  -0.18681  0  3.965619  0
C  C61  1  0.13184055  0.22161066  0.38265457  1  0.032378  0  -0.031316  -0.185799  0  3.9477  0
C  C62  1  0.25915508  0.05528837  0.22832622  1  -0.083112  0  -0.081242  -0.212459  0  3.565518  0
C  C63  1  0.16640705  0.14802292  0.19159727  1  0.076762  0  0.001286  0.09063  0  3.861331  0
C  C64  1  0.26532180  0.15750747  0.25567295  1  0.421392  0  0.089595  0.193943  0  3.786058  0
C  C65  1  0.15344330  0.17723939  0.28978507  1  0.074645  0  0.000892  -0.045401  0  3.838463  0
C  C66  1  0.17241264  0.25085657  0.21928265  1  0.591296  0  0.101178  0.112871  0  3.735465  0
C  C67  1  0.06170796  0.26865057  0.25262720  1  0.578664  0  0.108341  0.203926  0  3.766495  0
C  C68  1  0.17767017  0.12682310  0.14143193  1  -0.319279  0  -0.027103  -0.029978  0  4.084445  0
C  C69  1  0.11044197  0.27628167  0.42948372  1  1.661822  0  0.278842  0.705643  0  4.173997  0
C  C70  1  0.14348529  0.19765075  0.33980621  1  -0.280642  0  -0.027532  -0.012489  0  4.103699  0
C  C71  1  0.26693221  0.62994355  0.25957534  1  -0.016223  0  -0.069261  -0.072886  0  3.624886  0
C  C72  1  0.25165095  0.54259272  0.22585379  1  0.001619  0  -0.071235  -0.080179  0  3.632037  0
C  C73  1  0.22371420  0.65933230  0.09625621  1  -0.336953  0  -0.04281  -0.202428  0  3.97141  0
C  C74  1  0.11701068  0.65603271  0.38098916  1  0.255541  0  -0.044767  -0.210317  0  3.974641  0
C  C75  1  0.19711107  0.73449947  0.22401527  1  -0.032419  0  -0.07132  -0.085271  0  3.628452  0
C  C76  1  0.18250629  0.64680460  0.18883630  1  0.108691  0  0.011065  0.127101  0  3.791433  0
C  C77  1  0.07153152  0.76807790  0.24989570  1  -0.050402  0  -0.073372  -0.092505  0  3.635716  0
C  C78  1  0.14122539  0.66403557  0.28690449  1  0.127985  0  0.006541  0.117904  0  3.80116  0
C  C79  1  0.05684842  0.68071566  0.21595340  1  -0.036828  0  -0.068182  -0.074553  0  3.623044  0
C  C80  1  0.10044113  0.60809304  0.56749017  1  1.596875  0  0.272442  0.666706  0  4.075426  0
C  C81  1  0.12661391  0.57616456  0.25174455  1  -0.020942  0  -0.069353  -0.073407  0  3.625056  0
C  C82  1  0.20441717  0.64808104  0.13873237  1  0.078244  0  -0.020002  -0.02645  0  4.066295  0
C  C83  1  0.12490324  0.66485671  0.33743900  1  -0.543878  0  -0.020076  -0.022453  0  4.066554  0
C  C84  1  0.70903631  0.63839026  0.60813415  1  0.035055  0  -0.036427  -0.261155  0  3.943552  0
C  C85  1  0.67769063  0.74807361  0.63203355  1  0.611056  0  0.111106  0.224184  0  4.119697  0
C  C86  1  0.64601318  0.75837127  0.68175165  1  0.421887  0  0.080266  0.103326  0  4.00395  0
C  C87  1  0.63924983  0.67219034  0.70971203  1  0.107433  0  -0.013461  -0.07972  0  4.086034  0
C  C88  1  0.66477869  0.56783302  0.68444320  1  0.474787  0  0.071515  0.091256  0  4.107645  0
C  C89  1  0.69627533  0.55238503  0.63586129  1  0.528115  0  0.091396  0.162698  0  4.096927  0
C  C90  1  0.51047217  0.79062576  0.78224431  1  0.439674  0  0.10303  0.273538  0  4.069068  0
C  C91  1  0.77095687  0.60796467  0.56037791  1  1.522903  0  0.271144  0.669724  0  4.064662  0
C  C92  1  0.50104568  0.80503223  0.83263939  1  0.0286  0  -0.096109  -0.209769  0  3.918412  0
C  C93  1  0.67268709  0.60537067  0.84296068  1  -0.023758  0  -0.097723  -0.130236  0  4.010247  0
C  C94  1  0.68951913  0.59438878  0.79317139  1  0.020814  0  -0.086929  -0.105906  0  4.003007  0
C  C95  1  0.61214716  0.68595800  0.76216731  1  0.026825  0  -0.019934  -0.022912  0  3.952793  0
C  C96  1  0.58006316  0.71387812  0.86262498  1  -0.049327  0  -0.011237  -0.01662  0  4.012711  0
C  C97  1  0.13000986  0.24888689  0.61679413  1  0.073413  0  -0.015252  -0.12324  0  3.968388  0
C  C98  1  0.02699153  0.28749782  0.64782107  1  0.059701  0  -0.086191  -0.191941  0  3.976903  0
C  C99  1  0.04101996  0.26590831  0.69667798  1  0.41587  0  0.095548  0.228157  0  4.034672  0
C  C100  1  0.15605220  0.20238698  0.71754170  1  0.014861  0  -0.007883  0.010463  0  4.013672  0
C  C101  1  0.25891102  0.16149849  0.68597001  1  0.032032  0  -0.098587  -0.247042  0  3.980352  0
C  C102  1  0.11011164  0.28957491  0.56586469  1  1.593519  0  0.272017  0.661154  0  4.089808  0
C  C103  1  0.24544518  0.18522899  0.63709734  1  0.411481  0  0.106465  0.279472  0  4.049929  0
C  C104  1  0.26121203  0.17663657  0.79528749  1  0.383027  0  0.086074  0.108106  0  3.982125  0
C  C105  1  0.28482998  0.14308534  0.84419543  1  0.555155  0  0.110671  0.209015  0  4.133688  0
C  C106  1  0.11334660  0.10555703  0.84193221  1  -0.014406  0  -0.085239  -0.081219  0  4.035767  0
C  C107  1  0.09224306  0.14099140  0.79451074  1  -0.048851  0  -0.113301  -0.181196  0  4.057451  0
C  C108  1  0.16942778  0.17521734  0.76940834  1  0.062518  0  -0.016162  -0.009745  0  4.068249  0
C  C109  1  0.20977268  0.10255869  0.86722562  1  -0.037181  0  -0.031432  -0.169301  0  3.967266  0
C  C110  1  0.12903356  0.62622361  0.61729224  1  0.043837  0  -0.023486  -0.137439  0  4.027042  0
C  C111  1  0.24882926  0.59652137  0.62743019  1  -0.060061  0  -0.090595  -0.186361  0  3.929239  0
C  C112  1  0.28250643  0.60634465  0.67412443  1  0.421697  0  0.091681  0.241814  0  4.10151  0
C  C113  1  0.60923095  0.78628486  0.26802992  1  0.49107  0  0.096615  0.18899  0  3.792942  0
C  C114  1  0.19295872  0.64352638  0.71210066  1  0.023545  0  -0.015591  0.014857  0  3.984014  0
C  C115  1  0.07339735  0.67200569  0.70218913  1  0.05595  0  -0.100424  -0.250082  0  4.022966  0
C  C116  1  0.04253011  0.66407317  0.65555777  1  0.370328  0  0.084817  0.244387  0  4.087253  0
C  C117  1  0.18373724  0.76966748  0.78232677  1  0.465811  0  0.09405  0.269901  0  4.097804  0
C  C118  1  0.19837398  0.77969362  0.83153162  1  0.008446  0  -0.100804  -0.210218  0  3.944874  0
C  C119  1  0.29599822  0.56677619  0.84124466  1  0.518162  0  0.079915  0.134302  0  4.094386  0
C  C120  1  0.27720329  0.55694400  0.79268228  1  0.483052  0  0.084701  0.130871  0  4.107956  0
C  C121  1  0.22106900  0.65554707  0.76258217  1  -0.018551  0  -0.026085  -0.131351  0  4.004606  0
C  C122  1  0.25388135  0.67980477  0.86116828  1  0.062019  0  -0.021241  -0.114848  0  4.037988  0
C  C123  1  0.22140432  0.04598367  0.05177363  1  1.651906  0  0.280127  0.706095  0  4.173377  0
C  C124  1  0.69881228  0.76203130  0.22348558  1  -0.042906  0  -0.076485  -0.12641  0  3.659277  0
C  C125  1  0.54702701  0.74394268  0.05245480  1  1.649766  0  0.28263  0.723453  0  4.144903  0
C  C126  1  0.24847101  0.69480525  0.05009009  1  1.653502  0  0.278092  0.711854  0  4.167095  0
C  C127  1  0.23364327  0.04834578  0.91551383  1  1.534699  0  0.260881  0.633619  0  4.104961  0
C  C128  1  0.55315145  0.73441277  0.91532453  1  1.537323  0  0.284573  0.660814  0  4.055945  0
C  C129  1  0.26723048  0.70218255  0.91265211  1  1.599744  0  0.274721  0.669147  0  4.071207  0
C  C130  1  0.58790419  0.73167376  0.10090618  1  -0.108878  0  -0.042151  -0.214042  0  3.947781  0
N  N131  1  0.37157074  0.14942886  0.27545302  1  -1.165074  0  -0.586818  -0.609426  0  3.255244  0
N  N132  1  0.67876289  0.84161356  0.61013986  1  -1.25851  0  -0.577409  -0.573112  0  3.334191  0
N  N133  1  0.56358411  0.88551173  0.29848145  1  -1.214881  0  -0.6168  -0.639299  0  3.336581  0
N  N134  1  0.41896299  0.87408723  0.75458333  1  -1.24749  0  -0.594979  -0.60847  0  3.376606  0
N  N135  1  0.37683311  0.14869341  0.86532340  1  -1.289981  0  -0.573074  -0.580003  0  3.36618  0
N  N136  1  0.12727706  0.87007423  0.75386963  1  -1.212321  0  -0.602548  -0.612702  0  3.321215  0
N  N137  1  0.39945279  0.58461028  0.68249780  1  -1.22486  0  -0.605096  -0.629081  0  3.351338  0
N  N138  1  0.76971061  0.47710062  0.18518844  1  -1.177749  0  -0.613589  -0.650144  0  3.268274  0
N  N139  1  0.11934647  0.99612858  0.28808316  1  -1.166369  0  -0.613367  -0.646919  0  3.260072  0
O  O140  1  0.18465139  0.30891129  0.44157959  1  -1.202163  0  -0.201851  -0.541382  0  2.295691  0
O  O141  1  0.79463884  0.68411942  0.53932691  1  -1.261823  0  -0.234679  -0.598968  0  2.309026  0
O  O142  1  0.80585191  0.50498746  0.54218598  1  -1.255697  0  -0.235048  -0.599596  0  2.329071  0
O  O143  1  0.00676220  0.31292181  0.54885801  1  -1.268416  0  -0.244664  -0.60273  0  2.278616  0
O  O144  1  0.01936012  0.49110238  0.49637961  1  -1.611705  0  -0.391839  -1.269796  0  2.302669  0
O  O145  1  0.17003017  0.79636436  0.03543944  1  -1.211049  0  -0.206351  -0.553445  0  2.292818  0
O  O146  1  0.14954808  0.01548982  0.03476083  1  -1.204893  0  -0.198131  -0.524521  0  2.271841  0
O  O147  1  0.32337231  0.02859109  0.03232458  1  -1.253796  0  -0.242262  -0.606489  0  2.253233  0
O  O148  1  0.52803461  0.83716920  0.02901631  1  -1.244525  0  -0.231514  -0.595395  0  2.236691  0
O  O149  1  0.52754460  0.66245497  0.03683033  1  -1.234077  0  -0.225133  -0.584628  0  2.242242  0
O  O150  1  0.35140412  0.62204003  0.02833794  1  -1.254505  0  -0.243406  -0.607657  0  2.227469  0
O  O151  1  0.18297068  0.51716262  0.44105560  1  -1.213748  0  -0.198547  -0.529852  0  2.280988  0
O  O152  1  0.18021356  0.79532686  0.93192774  1  -1.247656  0  -0.221167  -0.582329  0  2.344759  0
O  O153  1  0.16585832  0.00927874  0.93154035  1  -1.238598  0  -0.217038  -0.567851  0  2.378783  0
O  O154  1  0.32742328  0.03830760  0.93815010  1  -1.269773  0  -0.249307  -0.614944  0  2.287169  0
O  O155  1  0.51969044  0.83884422  0.93159423  1  -1.271452  0  -0.237378  -0.604741  0  2.297467  0
O  O156  1  0.55569042  0.65057637  0.94100115  1  -1.261175  0  -0.234796  -0.595105  0  2.256747  0
O  O157  1  0.36799408  0.62976987  0.93268286  1  -1.263662  0  -0.242537  -0.604154  0  2.275638  0
O  O158  1  0.33174545  0.83258091  0.98423117  1  -1.611349  0  -0.391937  -1.270334  0  2.296714  0
O  O159  1  0.01377455  0.69788977  0.45601307  1  -1.255187  0  -0.24668  -0.612418  0  2.223822  0
O  O160  1  0.82843657  0.67265775  0.44542095  1  -1.248893  0  -0.232314  -0.595242  0  2.254293  0
O  O161  1  0.82643284  0.49789889  0.44661012  1  -1.241253  0  -0.230596  -0.594506  0  2.242424  0
O  O162  1  0.01426650  0.29186290  0.45371517  1  -1.259272  0  -0.240974  -0.600675  0  2.221872  0
O  O163  1  0.19057752  0.30539525  0.54451837  1  -1.231673  0  -0.217101  -0.576091  0  2.354413  0
O  O164  1  0.18302911  0.51994698  0.54406261  1  -1.242353  0  -0.217015  -0.573857  0  2.335681  0
O  O165  1  0.99325560  0.68209006  0.55208562  1  -1.273035  0  -0.252599  -0.621858  0  2.28077  0
O  O166  1  0.35440950  0.33502736  0.48847703  1  -1.369982  0  -0.579502  -0.99677  0  1.79294  0
O  O167  1  0.99754418  0.97958201  0.98410916  1  -1.361276  0  -0.578315  -0.994419  0  1.797353  0
F  F168  1  0.18503710  0.33912377  0.19745345  1  -0.633516  0  -0.102859  -0.140974  0  1.351011  0
F  F169  1  0.62831117  0.86071783  0.70359940  1  -0.630778  0  -0.094625  -0.130175  0  1.368425  0
F  F170  1  0.65372792  0.48060370  0.70786614  1  -0.627849  0  -0.091193  -0.118229  0  1.402515  0
F  F171  1  0.71440043  0.44967656  0.61567454  1  -0.616463  0  -0.083834  -0.102718  0  1.393876  0
F  F172  1  0.33670608  0.21224576  0.77368232  1  -0.629013  0  -0.090639  -0.123949  0  1.389674  0
F  F173  1  0.93717689  0.31169065  0.72542232  1  -0.632771  0  -0.096434  -0.141844  0  1.361874  0
F  F174  1  0.34890466  0.14195039  0.60892982  1  -0.625492  0  -0.097164  -0.133775  0  1.336589  0
F  F175  1  0.31300943  0.44680488  0.77445471  1  -0.62085  0  -0.104303  -0.128569  0  1.38344  0
F  F176  1  0.34867875  0.46654608  0.86824898  1  -0.623847  0  -0.105863  -0.125931  0  1.352881  0
F  F177  1  0.92594819  0.68750019  0.64837501  1  -0.642271  0  -0.106215  -0.152081  0  1.408635  0
F  F178  1  0.42193251  0.77097712  0.23613721  1  -0.647334  0  -0.107671  -0.17619  0  1.381052  0
F  F179  1  0.96325122  0.37615517  0.26635869  1  -0.640927  0  -0.097401  -0.152706  0  1.364834  0
