# generated using pymatgen
data_AlH6C27N7(ClO)6
_symmetry_space_group_name_H-M   'P 1'
_cell_length_a   3.98366333
_cell_length_b   18.13142436
_cell_length_c   18.12491956
_cell_angle_alpha   119.98697892
_cell_angle_beta   94.19817172
_cell_angle_gamma   92.96050272
_symmetry_Int_Tables_number   1
_chemical_formula_structural   AlH6C27N7(ClO)6
_chemical_formula_sum   'Al1 H6 C27 N7 Cl6 O6'
_cell_volume   1124.95137147
_cell_formula_units_Z   1
loop_
 _symmetry_equiv_pos_site_id
 _symmetry_equiv_pos_as_xyz
  1  'x, y, z'
loop_
 _atom_site_type_symbol
 _atom_site_label
 _atom_site_symmetry_multiplicity
 _atom_site_fract_x
 _atom_site_fract_y
 _atom_site_fract_z
 _atom_site_occupancy
 _atom_site_pbe_bader_charge
 _atom_site_pbe_bader_spin_density
 _atom_site_pbe_cm5_charge
 _atom_site_pbe_ddec_charge
 _atom_site_pbe_ddec_spin_density
 _atom_site_pbe_ddec_sum_bond_order
 _atom_site_pbe_magmom
Al  Al0  1  0.00642126  0.99977718  0.49851129  1  2.505764  0  0.422945  1.611175  0  2.544975  0
H  H1  1  0.38175716  0.31022931  0.41183609  1  0.136062  0  0.115096  0.136672  0  0.993752  0
H  H2  1  0.48024619  0.08220668  0.89507312  1  0.151278  0  0.115766  0.137501  0  0.991117  0
H  H3  1  0.33758210  0.60066248  0.17917793  1  0.143207  0  0.116502  0.138803  0  0.988434  0
H  H4  1  0.71277019  0.31870742  0.89840471  1  0.179671  0  0.116521  0.138477  0  0.987627  0
H  H5  1  0.54990291  0.60406865  0.41747551  1  0.140924  0  0.115789  0.137472  0  0.990574  0
H  H6  1  0.63159217  0.08494316  0.18809590  1  0.161949  0  0.115633  0.137383  0  0.992451  0
C  C7  1  0.50075997  0.06523177  0.43309163  1  1.641105  0  0.274679  0.673681  0  4.077946  0
C  C8  1  0.56229133  0.06562154  0.63048137  1  1.611511  0  0.276708  0.675946  0  4.072599  0
C  C9  1  0.45760501  0.86803349  0.43235217  1  1.639722  0  0.275557  0.675931  0  4.06801  0
C  C10  1  0.43474488  0.24364390  0.38073600  1  0.035236  0  -0.082198  -0.168406  0  3.930096  0
C  C11  1  0.50751230  0.20226292  0.29543741  1  0.033006  0  -0.002729  0.035161  0  3.975957  0
C  C12  1  0.53109399  0.11574018  0.86071143  1  -0.017567  0  -0.082715  -0.169683  0  3.930847  0
C  C13  1  0.59734697  0.20508402  0.90598742  1  0.101734  0  -0.002433  0.037777  0  3.981815  0
C  C14  1  0.44491335  0.59316280  0.29368307  1  -0.079649  0  -0.002393  0.037694  0  3.981852  0
C  C15  1  0.38202174  0.63635649  0.24886029  1  0.06186  0  -0.082542  -0.170545  0  3.930353  0
C  C16  1  0.66239631  0.24929526  0.86266366  1  -0.055183  0  -0.082818  -0.170593  0  3.928964  0
C  C17  1  0.66288189  0.20342497  0.77405243  1  0.097544  0  0.022367  0.141176  0  4.033605  0
C  C18  1  0.58789355  0.11385196  0.72680043  1  0.074942  0  -0.00655  -0.133266  0  3.878938  0
C  C19  1  0.52104660  0.07118330  0.77185663  1  0.046935  0  0.022681  0.14264  0  4.034667  0
C  C20  1  0.37396204  0.72470508  0.29443499  1  0.046565  0  0.023364  0.142641  0  4.03137  0
C  C21  1  0.43995313  0.77197099  0.38448902  1  0.056702  0  -0.006792  -0.134362  0  3.876778  0
C  C22  1  0.50459571  0.72701637  0.42784153  1  0.057728  0  0.022803  0.143321  0  4.030558  0
C  C23  1  0.50154929  0.63834677  0.38341190  1  0.052089  0  -0.082714  -0.169559  0  3.928776  0
C  C24  1  0.57553356  0.11640221  0.25432073  1  -0.003294  0  -0.081963  -0.167232  0  3.927337  0
C  C25  1  0.57175051  0.07260039  0.29911954  1  0.096241  0  0.021029  0.136351  0  4.040934  0
C  C26  1  0.50022678  0.11276269  0.38473999  1  0.030035  0  -0.007189  -0.134177  0  3.890618  0
C  C27  1  0.43140341  0.19875594  0.42442750  1  0.044908  0  0.021279  0.13757  0  4.041672  0
C  C28  1  0.46912745  0.37650147  0.25221638  1  1.497853  0  0.358778  0.508287  0  4.087606  0
C  C29  1  0.56742522  0.24623683  0.12234699  1  1.510329  0  0.358265  0.506493  0  4.08658  0
C  C30  1  0.51246268  0.24937857  0.24868998  1  1.056834  0  0.263047  0.396062  0  4.026459  0
C  C31  1  0.45957255  0.49975759  0.24661945  1  1.118857  0  0.261322  0.39288  0  4.031195  0
C  C32  1  0.52619990  0.37915354  0.12028835  1  1.547891  0  0.357003  0.503783  0  4.087503  0
C  C33  1  0.58696646  0.25234548  0.99955088  1  1.054692  0  0.261447  0.391976  0  4.030009  0
N  N34  1  0.52103866  0.33399845  0.16494104  1  -1.219131  0  -0.192792  -0.241494  0  3.555797  0
N  N35  1  0.57407245  0.20528417  0.16623208  1  -1.135513  0  -0.316675  -0.438167  0  3.208016  0
N  N36  1  0.45453460  0.33227658  0.29268311  1  -1.176676  0  -0.317344  -0.439428  0  3.20872  0
N  N37  1  0.43560249  0.46010899  0.29232609  1  -1.164907  0  -0.319675  -0.443226  0  3.207712  0
N  N38  1  0.49791601  0.46302629  0.16268520  1  -1.155376  0  -0.316443  -0.437387  0  3.202749  0
N  N39  1  0.60238474  0.20609367  0.03890017  1  -1.186213  0  -0.319809  -0.442131  0  3.206795  0
N  N40  1  0.55852412  0.33687498  0.03667378  1  -1.218546  0  -0.317244  -0.438078  0  3.200482  0
Cl  Cl41  1  0.66089676  0.96737094  0.24858147  1  -0.171675  0  0.012135  -0.044511  0  1.572281  0
Cl  Cl42  1  0.33797775  0.24974695  0.52908595  1  -0.174476  0  0.012055  -0.044735  0  1.564035  0
Cl  Cl43  1  0.60493476  0.78194808  0.53762727  1  -0.182302  0  0.007532  -0.052395  0  1.579123  0
Cl  Cl44  1  0.27351640  0.77633922  0.23881372  1  -0.170304  0  0.008401  -0.050732  0  1.553307  0
Cl  Cl45  1  0.76175108  0.25786518  0.72181012  1  -0.182728  0  0.009143  -0.049523  0  1.550673  0
Cl  Cl46  1  0.40860278  0.96222018  0.71670024  1  -0.171481  0  0.008486  -0.051045  0  1.580994  0
O  O47  1  0.24112114  0.90371115  0.48394486  1  -1.249047  0  -0.226964  -0.58182  0  2.392135  0
O  O48  1  0.24488463  0.01276389  0.41703183  1  -1.244847  0  -0.227932  -0.585193  0  2.410378  0
O  O49  1  0.31926163  0.08078762  0.59219378  1  -1.244629  0  -0.230224  -0.593001  0  2.417026  0
O  O50  1  0.69409029  0.90663077  0.41718639  1  -1.242981  0  -0.230672  -0.594747  0  2.417104  0
O  O51  1  0.77877577  0.01375151  0.59444877  1  -1.243931  0  -0.228145  -0.583542  0  2.393832  0
O  O52  1  0.75810412  0.08130891  0.48628969  1  -1.242718  0  -0.229382  -0.587873  0  2.411816  0
