# generated using pymatgen
data_AlH13C16O9
_symmetry_space_group_name_H-M   'P 1'
_cell_length_a   6.64251586
_cell_length_b   20.80393238
_cell_length_c   23.64781387
_cell_angle_alpha   90.05256089
_cell_angle_beta   90.01481347
_cell_angle_gamma   90.43157195
_symmetry_Int_Tables_number   1
_chemical_formula_structural   AlH13C16O9
_chemical_formula_sum   'Al4 H52 C64 O36'
_cell_volume   3267.80786479
_cell_formula_units_Z   4
loop_
 _symmetry_equiv_pos_site_id
 _symmetry_equiv_pos_as_xyz
  1  'x, y, z'
loop_
 _atom_site_type_symbol
 _atom_site_label
 _atom_site_symmetry_multiplicity
 _atom_site_fract_x
 _atom_site_fract_y
 _atom_site_fract_z
 _atom_site_occupancy
 _atom_site_pbe_bader_charge
 _atom_site_pbe_bader_spin_density
 _atom_site_pbe_cm5_charge
 _atom_site_pbe_ddec_charge
 _atom_site_pbe_ddec_spin_density
 _atom_site_pbe_ddec_sum_bond_order
 _atom_site_pbe_magmom
Al  Al0  1  0.76303312  0.75048880  0.74871769  1  2.500604  0  0.400273  1.640787  0  2.583525  0
Al  Al1  1  0.23410728  0.24815409  0.25172034  1  2.500254  0  0.400646  1.640025  0  2.586427  0
Al  Al2  1  0.26279807  0.74755137  0.74855939  1  2.502208  0  0.400586  1.642086  0  2.584068  0
Al  Al3  1  0.73466722  0.25071262  0.25173038  1  2.500069  0  0.400712  1.640778  0  2.584697  0
H  H4  1  0.78106987  0.67111917  0.51404231  1  0.051904  0  0.097609  0.095643  0  0.997524  0
H  H5  1  0.62284344  0.63917639  0.56902631  1  0.113252  0  0.107671  0.120195  0  0.9873  0
H  H6  1  0.51389561  0.66369410  0.50333610  1  0.07261  0  0.105002  0.107694  0  0.978371  0
H  H7  1  0.37644761  0.36256971  0.42927683  1  0.066382  0  0.107222  0.119804  0  0.98701  0
H  H8  1  0.21671599  0.33155184  0.48438850  1  0.06612  0  0.099753  0.099798  0  0.99186  0
H  H9  1  0.48372871  0.33846197  0.49529535  1  0.053111  0  0.108727  0.112893  0  0.970982  0
H  H10  1  0.41100909  0.40711061  0.07275408  1  0.070441  0  0.096321  0.099714  0  1.002674  0
H  H11  1  0.53091157  0.44444368  0.01287332  1  0.065525  0  0.095044  0.099605  0  1.016914  0
H  H12  1  0.52410957  0.35826827  0.01915763  1  0.069071  0  0.105996  0.114402  0  0.971609  0
H  H13  1  0.84144844  0.68355193  0.96434409  1  0.084124  0  0.098578  0.104822  0  1.020905  0
H  H14  1  0.93490213  0.67900020  0.03560506  1  0.05617  0  0.096071  0.089955  0  0.99467  0
H  H15  1  0.67702084  0.70014321  0.02251145  1  0.056477  0  0.110351  0.117322  0  0.96895  0
H  H16  1  0.08934262  0.90454322  0.92573662  1  0.036693  0  0.09669  0.100229  0  1.001741  0
H  H17  1  0.96708834  0.94278979  0.98455796  1  0.040663  0  0.094879  0.099025  0  1.01797  0
H  H18  1  0.97197956  0.85650534  0.97949850  1  0.047869  0  0.106166  0.11459  0  0.971852  0
H  H19  1  0.65633913  0.18477941  0.03556341  1  0.049909  0  0.098121  0.103898  0  1.019915  0
H  H20  1  0.56231953  0.17907319  0.96437784  1  0.051805  0  0.096383  0.090122  0  0.993502  0
H  H21  1  0.82017744  0.20176770  0.97718443  1  0.086786  0  0.110724  0.117672  0  0.96844  0
H  H22  1  0.90266395  0.09666595  0.42565281  1  0.088215  0  0.098906  0.103915  0  1.000053  0
H  H23  1  0.03001550  0.05705718  0.48290639  1  0.044697  0  0.094473  0.098767  0  1.019837  0
H  H24  1  0.02375185  0.14342782  0.47964915  1  0.061023  0  0.107135  0.11535  0  0.970584  0
H  H25  1  0.34075268  0.81363476  0.53584558  1  0.088238  0  0.099215  0.106332  0  1.019728  0
H  H26  1  0.44552653  0.81952336  0.46585500  1  0.030023  0  0.093948  0.085684  0  0.998892  0
H  H27  1  0.18662445  0.79616901  0.47544914  1  0.049845  0  0.10686  0.111305  0  0.975154  0
H  H28  1  0.73369201  0.53908265  0.35961380  1  0.019645  0  0.092077  0.085684  0  0.994665  0
H  H29  1  0.53966228  0.56460816  0.40775010  1  0.057876  0  0.094676  0.091061  0  1.03106  0
H  H30  1  0.49657279  0.49729115  0.36137151  1  0.061861  0  0.1086  0.115825  0  0.972001  0
H  H31  1  0.46439407  0.43833934  0.58915537  1  0.086273  0  0.096388  0.093918  0  1.028802  0
H  H32  1  0.26632498  0.46126441  0.63696359  1  0.013432  0  0.093736  0.088312  0  0.992733  0
H  H33  1  0.50039010  0.50478369  0.63696658  1  0.051747  0  0.108908  0.116269  0  0.971661  0
H  H34  1  0.10070474  0.45611101  0.85141374  1  0.034068  0  0.094971  0.090999  0  0.991374  0
H  H35  1  0.24895404  0.39991058  0.89165105  1  0.069371  0  0.095636  0.095159  0  1.017408  0
H  H36  1  0.36877228  0.45402998  0.84252717  1  0.065202  0  0.108681  0.115179  0  0.970029  0
H  H37  1  0.79790787  0.60344719  0.12377669  1  0.056539  0  0.094143  0.089574  0  1.0108  0
H  H38  1  0.92909933  0.53804665  0.15722968  1  0.075514  0  0.095087  0.091043  0  0.99345  0
H  H39  1  0.66482523  0.54890535  0.16950226  1  0.07155  0  0.108804  0.115959  0  0.968538  0
H  H40  1  0.39848224  0.95749228  0.14787272  1  0.044349  0  0.094188  0.089438  0  0.993078  0
H  H41  1  0.25120900  0.89957710  0.10837463  1  0.061967  0  0.095441  0.094893  0  1.016148  0
H  H42  1  0.13075379  0.95317519  0.15742503  1  0.061765  0  0.107565  0.113432  0  0.972108  0
H  H43  1  0.70255634  0.10322685  0.87541684  1  0.055054  0  0.094487  0.090217  0  1.008676  0
H  H44  1  0.57285504  0.03640752  0.84262043  1  0.049708  0  0.095063  0.091096  0  0.994044  0
H  H45  1  0.83730330  0.04857095  0.83070044  1  0.06152  0  0.108956  0.115961  0  0.968716  0
H  H46  1  0.60583866  0.04319509  0.64830802  1  0.052861  0  0.09413  0.089001  0  0.992013  0
H  H47  1  0.75488743  0.09944109  0.60758345  1  0.078168  0  0.096418  0.095957  0  1.018518  0
H  H48  1  0.87423098  0.04596255  0.65691885  1  0.050933  0  0.107486  0.113134  0  0.971497  0
H  H49  1  0.31179022  0.89887863  0.37223180  1  0.042154  0  0.092605  0.087413  0  1.007134  0
H  H50  1  0.42929507  0.96949462  0.34224735  1  0.063979  0  0.094962  0.091028  0  0.996234  0
H  H51  1  0.16723982  0.95329420  0.32973672  1  0.068323  0  0.108753  0.115543  0  0.969817  0
H  H52  1  0.51703848  0.67021902  0.77275015  1  0.617523  0  0.356408  0.437749  0  0.845259  0
H  H53  1  0.48121552  0.32788560  0.22678875  1  0.632055  0  0.355462  0.435712  0  0.848061  0
H  H54  1  0.02066653  0.82951080  0.77047177  1  0.612615  0  0.357033  0.438262  0  0.843191  0
H  H55  1  0.97751722  0.17116429  0.22643520  1  0.61909  0  0.356228  0.437371  0  0.846055  0
C  C56  1  0.50629545  0.82489982  0.67288108  1  1.688685  0  0.275113  0.710778  0  4.176821  0
C  C57  1  0.49003571  0.17488175  0.32873413  1  1.67703  0  0.276261  0.712022  0  4.174192  0
C  C58  1  0.47955266  0.17150274  0.17462540  1  1.665898  0  0.271994  0.716048  0  4.17018  0
C  C59  1  0.51900288  0.82606490  0.82619447  1  1.687684  0  0.272044  0.716954  0  4.169809  0
C  C60  1  0.01537579  0.67138765  0.82545156  1  1.672859  0  0.27287  0.715785  0  4.172783  0
C  C61  1  0.98234439  0.32642349  0.17392579  1  1.686451  0  0.272188  0.71732  0  4.171371  0
C  C62  1  0.99322166  0.32523120  0.32794717  1  1.670542  0  0.27296  0.712167  0  4.179975  0
C  C63  1  0.00243418  0.67533632  0.67116518  1  1.661608  0  0.273005  0.712405  0  4.17979  0
C  C64  1  0.83615818  0.49221515  0.46180694  1  0.587006  0  0.078036  0.106977  0  4.048663  0
C  C65  1  0.16348238  0.51043963  0.53587917  1  0.589262  0  0.078477  0.107445  0  4.048921  0
C  C66  1  0.14065041  0.49845672  0.95836774  1  0.588457  0  0.083717  0.116271  0  4.045795  0
C  C67  1  0.86753333  0.50908738  0.04889476  1  0.546124  0  0.077021  0.097816  0  4.069141  0
C  C68  1  0.35525770  0.99826385  0.04108571  1  0.554169  0  0.084593  0.11796  0  4.045542  0
C  C69  1  0.63124524  0.00964616  0.95128291  1  0.572387  0  0.076709  0.097712  0  4.067574  0
C  C70  1  0.64370160  0.00051154  0.54157523  1  0.565893  0  0.086121  0.119969  0  4.045303  0
C  C71  1  0.36746462  0.98935309  0.45171333  1  0.541399  0  0.076862  0.096949  0  4.067765  0
C  C72  1  0.00468317  0.45036445  0.45961731  1  0.100566  0  -0.021173  -0.076628  0  4.149149  0
C  C73  1  0.99501459  0.55231345  0.53800114  1  0.118897  0  -0.022319  -0.077501  0  4.153104  0
C  C74  1  0.00638974  0.55131416  0.96100988  1  0.073317  0  -0.013303  -0.059293  0  4.120356  0
C  C75  1  0.99747754  0.45574290  0.04524610  1  0.124999  0  -0.011742  -0.054204  0  4.145384  0
C  C76  1  0.48971538  0.05170740  0.03868440  1  0.145269  0  -0.013517  -0.060369  0  4.11973  0
C  C77  1  0.50049827  0.95585728  0.95461860  1  0.125304  0  -0.011208  -0.053375  0  4.145362  0
C  C78  1  0.50990067  0.94686818  0.53878892  1  0.131365  0  -0.014814  -0.061781  0  4.120607  0
C  C79  1  0.49718928  0.04336951  0.45551313  1  0.157961  0  -0.010363  -0.051216  0  4.142002  0
C  C80  1  0.16907907  0.45874340  0.49760522  1  0.556486  0  0.081973  0.105921  0  4.062469  0
C  C81  1  0.83071208  0.54394807  0.49998615  1  0.530475  0  0.080206  0.103661  0  4.062712  0
C  C82  1  0.87195514  0.55726961  0.00735977  1  0.583789  0  0.083331  0.109135  0  4.057946  0
C  C83  1  0.13494395  0.45054440  0.99977799  1  0.542936  0  0.077035  0.106255  0  4.060729  0
C  C84  1  0.62574237  0.05802179  0.99266923  1  0.520131  0  0.083756  0.1103  0  4.057225  0
C  C85  1  0.36140380  0.95028805  0.99970796  1  0.543625  0  0.076543  0.105193  0  4.062871  0
C  C86  1  0.37452992  0.94050735  0.49254422  1  0.560585  0  0.085595  0.113153  0  4.053739  0
C  C87  1  0.63694525  0.04878557  0.50053551  1  0.559677  0  0.078329  0.106382  0  4.06019  0
C  C88  1  0.00373718  0.40491884  0.41535247  1  -0.377413  0  -0.019088  0.013902  0  4.146667  0
C  C89  1  0.99512686  0.59743604  0.58250028  1  -0.370345  0  -0.020366  0.011104  0  4.149931  0
C  C90  1  0.00559878  0.59426051  0.91489211  1  -0.44717  0  -0.013154  0.022836  0  4.111193  0
C  C91  1  0.99269556  0.40899186  0.08840317  1  -0.539137  0  -0.013857  0.023474  0  4.112787  0
C  C92  1  0.48926902  0.09478320  0.08479253  1  -0.368964  0  -0.013596  0.02285  0  4.111327  0
C  C93  1  0.50678453  0.90890382  0.91159670  1  -0.491884  0  -0.014528  0.0221  0  4.113132  0
C  C94  1  0.50940007  0.90362399  0.58463325  1  -0.517839  0  -0.013877  0.020313  0  4.114268  0
C  C95  1  0.49071060  0.09073624  0.41297635  1  -0.306954  0  -0.01335  0.018671  0  4.114859  0
C  C96  1  0.00375326  0.63324005  0.62327323  1  0.11146  0  -0.040351  -0.212628  0  3.944249  0
C  C97  1  0.99345970  0.36862116  0.37494629  1  0.114594  0  -0.039105  -0.212481  0  3.943452  0
C  C98  1  0.98872392  0.36999761  0.12675837  1  0.277152  0  -0.036183  -0.201455  0  3.922479  0
C  C99  1  0.00798189  0.62903256  0.87346640  1  0.19304  0  -0.034072  -0.200287  0  3.9195  0
C  C100  1  0.51241751  0.86975103  0.87334163  1  0.232729  0  -0.034949  -0.199967  0  3.919551  0
C  C101  1  0.48545694  0.12952120  0.12628251  1  0.128604  0  -0.034765  -0.201431  0  3.919433  0
C  C102  1  0.48812159  0.13058289  0.37532041  1  0.033506  0  -0.028952  -0.191537  0  3.914897  0
C  C103  1  0.50971724  0.86826492  0.62566941  1  0.255452  0  -0.030501  -0.196026  0  3.918683  0
C  C104  1  0.64619887  0.64200068  0.52321551  1  0.339352  0  -0.133004  -0.168744  0  3.894222  0
C  C105  1  0.35232344  0.36020494  0.47507070  1  0.393137  0  -0.131333  -0.170046  0  3.883805  0
C  C106  1  0.44206193  0.40281722  0.02724669  1  0.350747  0  -0.138371  -0.1669  0  3.879646  0
C  C107  1  0.80334984  0.67082334  0.00807026  1  0.356529  0  -0.135812  -0.174617  0  3.905916  0
C  C108  1  0.05559230  0.90107832  0.97115116  1  0.435135  0  -0.13806  -0.166479  0  3.878719  0
C  C109  1  0.69415009  0.17187627  0.99186904  1  0.35948  0  -0.135634  -0.173503  0  3.902343  0
C  C110  1  0.94011662  0.09896799  0.47088503  1  0.365634  0  -0.137156  -0.16628  0  3.873254  0
C  C111  1  0.30941636  0.82641413  0.49174297  1  0.381895  0  -0.136011  -0.172715  0  3.910514  0
C  C112  1  0.60874144  0.52305964  0.38694889  1  0.418495  0  -0.137526  -0.169787  0  3.922256  0
C  C113  1  0.39145708  0.47883097  0.61046016  1  0.407149  0  -0.1366  -0.169915  0  3.916312  0
C  C114  1  0.24556051  0.44826097  0.87295898  1  0.383821  0  -0.135577  -0.169616  0  3.910911  0
C  C115  1  0.78572776  0.55324585  0.13816787  1  0.347869  0  -0.134916  -0.166247  0  3.923977  0
C  C116  1  0.25325704  0.94816583  0.12672968  1  0.385646  0  -0.13597  -0.168915  0  3.914658  0
C  C117  1  0.71559378  0.05281717  0.86174452  1  0.383082  0  -0.134827  -0.166753  0  3.922537  0
C  C118  1  0.75065884  0.05125326  0.62660044  1  0.37718  0  -0.135466  -0.168241  0  3.911849  0
C  C119  1  0.28966085  0.94961447  0.36061481  1  0.379641  0  -0.1353  -0.166269  0  3.926917  0
O  O120  1  0.35175985  0.81376700  0.80183911  1  -1.242656  0  -0.232615  -0.597088  0  2.287093  0
O  O121  1  0.64763362  0.18452100  0.19829418  1  -1.240586  0  -0.233898  -0.599325  0  2.28938  0
O  O122  1  0.65982549  0.19910321  0.31525914  1  -1.234073  0  -0.224041  -0.570605  0  2.279329  0
O  O123  1  0.33725779  0.79909200  0.68493722  1  -1.239523  0  -0.225103  -0.573142  0  2.280645  0
O  O124  1  0.83394995  0.70039504  0.68416104  1  -1.233208  0  -0.228743  -0.578888  0  2.279717  0
O  O125  1  0.16213424  0.30082655  0.31443436  1  -1.241399  0  -0.228441  -0.579508  0  2.285444  0
O  O126  1  0.15026903  0.31329258  0.19720994  1  -1.241922  0  -0.233157  -0.59774  0  2.285925  0
O  O127  1  0.84863609  0.68367939  0.80111926  1  -1.234894  0  -0.233146  -0.598422  0  2.290527  0
O  O128  1  0.67198597  0.81626176  0.69882533  1  -1.238872  0  -0.228192  -0.58241  0  2.291177  0
O  O129  1  0.32230318  0.18494885  0.30435822  1  -1.238993  0  -0.226319  -0.579313  0  2.292312  0
O  O130  1  0.30653609  0.19151053  0.18947238  1  -1.237707  0  -0.231783  -0.588776  0  2.278633  0
O  O131  1  0.69180923  0.80468073  0.81274192  1  -1.238525  0  -0.232617  -0.589494  0  2.277296  0
O  O132  1  0.18908093  0.69247602  0.81158634  1  -1.230866  0  -0.230817  -0.586875  0  2.279541  0
O  O133  1  0.80867480  0.30586370  0.18845432  1  -1.236634  0  -0.232713  -0.590106  0  2.280845  0
O  O134  1  0.82555095  0.31511773  0.30308808  1  -1.23872  0  -0.231279  -0.586522  0  2.289957  0
O  O135  1  0.16872907  0.68356235  0.69724280  1  -1.243521  0  -0.231193  -0.5871  0  2.292318  0
O  O136  1  0.51374508  0.70953377  0.75075138  1  -1.418015  0  -0.446765  -0.993283  0  2.18928  0
O  O137  1  0.48372575  0.28864535  0.24887655  1  -1.432599  0  -0.446529  -0.99213  0  2.195084  0
O  O138  1  0.01556446  0.78848226  0.75105763  1  -1.413026  0  -0.446258  -0.993042  0  2.195044  0
O  O139  1  0.98198682  0.20991789  0.24927320  1  -1.418425  0  -0.446572  -0.991712  0  2.189084  0
O  O140  1  0.66007360  0.57940304  0.49804415  1  -1.069994  0  -0.177033  -0.132355  0  2.648402  0
O  O141  1  0.33928678  0.42323888  0.49963526  1  -1.068934  0  -0.176819  -0.132786  0  2.649219  0
O  O142  1  0.25696805  0.39781918  0.99515252  1  -1.071751  0  -0.210655  -0.191384  0  2.549787  0
O  O143  1  0.73425782  0.60523969  0.01292191  1  -1.062038  0  -0.194321  -0.155741  0  2.565622  0
O  O144  1  0.23871702  0.89713356  0.00415646  1  -1.081285  0  -0.211752  -0.191919  0  2.549107  0
O  O145  1  0.76361555  0.10660651  0.98731716  1  -1.054742  0  -0.194012  -0.155637  0  2.563624  0
O  O146  1  0.75965801  0.10183226  0.50521248  1  -1.073063  0  -0.209838  -0.190466  0  2.550914  0
O  O147  1  0.23897136  0.89140169  0.48630246  1  -1.067206  0  -0.193649  -0.153838  0  2.565133  0
O  O148  1  0.67821400  0.47675577  0.42735771  1  -1.07555  0  -0.188658  -0.150613  0  2.612984  0
O  O149  1  0.32062149  0.52568950  0.57063718  1  -1.072956  0  -0.189304  -0.151694  0  2.611945  0
O  O150  1  0.27839797  0.49702060  0.91534603  1  -1.063989  0  -0.200229  -0.166108  0  2.545795  0
O  O151  1  0.73065500  0.51123139  0.09235937  1  -1.09163  0  -0.203062  -0.17834  0  2.580543  0
O  O152  1  0.21719540  0.99606801  0.08406130  1  -1.064544  0  -0.201076  -0.167172  0  2.545581  0
O  O153  1  0.76996029  0.01207017  0.90826712  1  -1.085976  0  -0.202803  -0.177531  0  2.578604  0
O  O154  1  0.78166653  0.00224677  0.58449454  1  -1.071629  0  -0.198909  -0.164089  0  2.548357  0
O  O155  1  0.22838950  0.98675794  0.40877145  1  -1.092239  0  -0.202696  -0.177076  0  2.578139  0
