# generated using pymatgen
data_AlH12C13O5
_symmetry_space_group_name_H-M   'P 1'
_cell_length_a   6.64198563
_cell_length_b   16.44547456
_cell_length_c   17.72483807
_cell_angle_alpha   90.03897101
_cell_angle_beta   89.91701677
_cell_angle_gamma   94.69700856
_symmetry_Int_Tables_number   1
_chemical_formula_structural   AlH12C13O5
_chemical_formula_sum   'Al4 H48 C52 O20'
_cell_volume   1929.59041229
_cell_formula_units_Z   4
loop_
 _symmetry_equiv_pos_site_id
 _symmetry_equiv_pos_as_xyz
  1  'x, y, z'
loop_
 _atom_site_type_symbol
 _atom_site_label
 _atom_site_symmetry_multiplicity
 _atom_site_fract_x
 _atom_site_fract_y
 _atom_site_fract_z
 _atom_site_occupancy
 _atom_site_pbe_bader_charge
 _atom_site_pbe_bader_spin_density
 _atom_site_pbe_cm5_charge
 _atom_site_pbe_ddec_charge
 _atom_site_pbe_ddec_spin_density
 _atom_site_pbe_ddec_sum_bond_order
 _atom_site_pbe_magmom
Al  Al0  1  0.77412681  0.72310616  0.25070632  1  2.497493  0  0.402754  1.639213  0  2.584026  0
Al  Al1  1  0.22507627  0.27593356  0.75074963  1  2.498954  0  0.402616  1.637511  0  2.588522  0
Al  Al2  1  0.27926361  0.72564218  0.24979660  1  2.501097  0  0.399635  1.644309  0  2.585674  0
Al  Al3  1  0.72073861  0.27607696  0.74996939  1  2.503996  0  0.399467  1.64454  0  2.58752  0
H  H4  1  0.33264925  0.94385674  0.13527477  1  0.08127  0  0.103907  0.106396  0  1.02604  0
H  H5  1  0.69039372  0.06698554  0.87069995  1  0.062613  0  0.106661  0.111355  0  1.020174  0
H  H6  1  0.65629449  0.05416990  0.63805800  1  0.08546  0  0.103433  0.104812  0  1.036002  0
H  H7  1  0.33754240  0.94152745  0.36399259  1  0.045296  0  0.106904  0.108982  0  1.025902  0
H  H8  1  0.89556411  0.06247051  0.07231329  1  0.016868  0  0.085033  0.115692  0  1.02643  0
H  H9  1  0.99660643  0.97456954  0.10854034  1  0.032493  0  0.083332  0.11366  0  1.021872  0
H  H10  1  0.91966103  0.05046750  0.17135335  1  0.017084  0  0.082564  0.108238  0  1.00819  0
H  H11  1  0.29504862  0.06388785  0.16118935  1  0.026104  0  0.088992  0.078281  0  1.013154  0
H  H12  1  0.19404827  0.15023884  0.12462536  1  0.007832  0  0.094563  0.090249  0  0.992777  0
H  H13  1  0.74253960  0.83587695  0.83885867  1  0.030364  0  0.086595  0.114665  0  1.009501  0
H  H14  1  0.65743019  0.93036965  0.81008196  1  0.015512  0  0.083284  0.107952  0  1.01633  0
H  H15  1  0.90635097  0.90615834  0.78683201  1  0.021045  0  0.086481  0.11571  0  1.010149  0
H  H16  1  0.92537842  0.00408446  0.89403819  1  0.04511  0  0.09511  0.093105  0  0.98691  0
H  H17  1  0.00220961  0.91056128  0.92342327  1  0.011546  0  0.094636  0.08975  0  0.996456  0
H  H18  1  0.09983523  0.96144872  0.56796571  1  0.038863  0  0.083443  0.111964  0  1.047239  0
H  H19  1  0.97333676  0.03956407  0.61081206  1  -0.001166  0  0.083267  0.112742  0  1.020974  0
H  H20  1  0.08235159  0.96587342  0.66773525  1  0.014417  0  0.083231  0.109805  0  1.007805  0
H  H21  1  0.70842575  0.93301289  0.66174562  1  0.014605  0  0.089079  0.078209  0  1.005917  0
H  H22  1  0.83909292  0.85588598  0.62087610  1  0.033496  0  0.094535  0.090529  0  1.001605  0
H  H23  1  0.13286474  0.10695230  0.28100276  1  0.025843  0  0.08659  0.116162  0  1.014096  0
H  H24  1  0.37780777  0.07962763  0.30603360  1  0.036912  0  0.084208  0.109717  0  1.013111  0
H  H25  1  0.29501249  0.17381684  0.33697385  1  0.007662  0  0.086852  0.114783  0  1.010102  0
H  H26  1  0.10156984  0.00456632  0.38496367  1  0.009103  0  0.09541  0.093167  0  0.986414  0
H  H27  1  0.02269800  0.09738921  0.41566033  1  0.023815  0  0.095038  0.089974  0  0.992183  0
H  H28  1  0.55693091  0.70977488  0.03617249  1  0.020797  0  0.086989  0.118639  0  1.009743  0
H  H29  1  0.58851603  0.73467865  0.93928049  1  0.041995  0  0.081955  0.105315  0  1.013542  0
H  H30  1  0.75547983  0.67055453  0.98436355  1  0.035453  0  0.082658  0.110902  0  1.02145  0
H  H31  1  0.92863256  0.80877717  0.96854002  1  0.018013  0  0.092731  0.089168  0  1.006005  0
H  H32  1  0.89159505  0.78775658  0.06508095  1  0.073081  0  0.094948  0.097633  0  1.007447  0
H  H33  1  0.38549253  0.27232078  0.06859910  1  0.014543  0  0.080822  0.103263  0  1.01263  0
H  H34  1  0.43286527  0.29890104  0.97280760  1  0.040951  0  0.088966  0.122073  0  1.001012  0
H  H35  1  0.21798919  0.33256291  0.01900011  1  0.006886  0  0.081184  0.108186  0  1.029558  0
H  H36  1  0.11835892  0.21341199  0.93375607  1  0.057608  0  0.09937  0.107348  0  1.00417  0
H  H37  1  0.06202081  0.18929577  0.02827570  1  0.041121  0  0.09252  0.090547  0  0.997879  0
H  H38  1  0.46407077  0.29339719  0.53995003  1  0.017254  0  0.08728  0.120125  0  1.01233  0
H  H39  1  0.45175919  0.27186453  0.44192404  1  -0.00188  0  0.082027  0.10549  0  1.012966  0
H  H40  1  0.27988505  0.33638432  0.48372553  1  0.067193  0  0.083418  0.112154  0  1.019478  0
H  H41  1  0.10430320  0.20006894  0.45925461  1  0.025439  0  0.092239  0.087486  0  1.007721  0
H  H42  1  0.11865459  0.21804339  0.55707818  1  0.041092  0  0.094839  0.099435  0  1.00391  0
H  H43  1  0.03385796  0.81409339  0.41635304  1  0.063932  0  0.090301  0.130048  0  1.020279  0
H  H44  1  0.09299009  0.84400085  0.51057199  1  0.025953  0  0.081271  0.109759  0  1.032124  0
H  H45  1  0.07751665  0.73941730  0.48540105  1  0.025533  0  0.082296  0.109593  0  1.012873  0
H  H46  1  0.76421667  0.76748694  0.55380506  1  0.002043  0  0.089598  0.079003  0  0.998545  0
H  H47  1  0.70941681  0.73994908  0.46013200  1  0.053843  0  0.096142  0.095007  0  0.9937  0
H  H48  1  0.50230888  0.62008746  0.22447695  1  0.612001  0  0.359501  0.442378  0  0.835802  0
H  H49  1  0.49232233  0.38034855  0.72388338  1  0.644302  0  0.359524  0.44163  0  0.836662  0
H  H50  1  0.04129792  0.82316812  0.21833716  1  0.637806  0  0.354448  0.432296  0  0.851297  0
H  H51  1  0.95330640  0.17616805  0.72098233  1  0.614991  0  0.354739  0.432987  0  0.850699  0
C  C52  1  0.54407179  0.82087086  0.14550478  1  1.540086  0  0.271412  0.659374  0  4.070118  0
C  C53  1  0.45966527  0.18333330  0.85583177  1  1.564666  0  0.274611  0.658959  0  4.067501  0
C  C54  1  0.45027338  0.17849784  0.64669569  1  1.543383  0  0.271943  0.659323  0  4.069536  0
C  C55  1  0.54918995  0.81884685  0.35436016  1  1.560865  0  0.275688  0.656432  0  4.067184  0
C  C56  1  0.01318449  0.62817570  0.35265135  1  1.694841  0  0.279661  0.697931  0  4.18688  0
C  C57  1  0.98833543  0.37367096  0.64648544  1  1.672037  0  0.274146  0.700582  0  4.185473  0
C  C58  1  0.99529587  0.37444021  0.85090716  1  1.714263  0  0.280189  0.697924  0  4.180086  0
C  C59  1  0.00549207  0.62469988  0.14787159  1  1.676385  0  0.274276  0.699484  0  4.184121  0
C  C60  1  0.00079013  0.57088897  0.08353912  1  0.137157  0  -0.001156  -0.14544  0  3.850454  0
C  C61  1  0.99958426  0.42979245  0.91411245  1  0.203312  0  0.006146  -0.134952  0  3.837857  0
C  C62  1  0.00034894  0.42816160  0.58264732  1  0.071136  0  -0.002221  -0.1465  0  3.849967  0
C  C63  1  0.00494772  0.57279959  0.41587203  1  0.077376  0  0.003958  -0.138  0  3.84561  0
C  C64  1  0.00034853  0.52564778  0.02877552  1  -0.196548  0  -0.002648  0.033166  0  4.235669  0
C  C65  1  0.99941201  0.47559794  0.96845264  1  -0.346633  0  -0.003136  0.028611  0  4.231761  0
C  C66  1  0.00217687  0.47473190  0.52885108  1  -0.187991  0  -0.003842  0.032922  0  4.234725  0
C  C67  1  0.00424922  0.52613582  0.46953439  1  -0.155999  0  -0.004648  0.029487  0  4.231963  0
C  C68  1  0.55922029  0.88027086  0.08166581  1  -0.081639  0  -0.015949  -0.090693  0  3.971735  0
C  C69  1  0.45084416  0.12567119  0.92108443  1  -0.121721  0  -0.013882  -0.089698  0  3.969682  0
C  C70  1  0.44428745  0.12150629  0.58098617  1  -0.038591  0  -0.015117  -0.092451  0  3.963095  0
C  C71  1  0.55395612  0.87563125  0.42021362  1  -0.010064  0  -0.013659  -0.091026  0  3.967564  0
C  C72  1  0.32073592  0.07485840  0.04140791  1  -0.000525  0  -0.005306  0.021039  0  3.868397  0
C  C73  1  0.71444061  0.93817145  0.96766852  1  -0.007855  0  -0.002614  0.021119  0  3.8708  0
C  C74  1  0.68005662  0.92559676  0.54143665  1  -0.005601  0  -0.003224  0.025543  0  3.852198  0
C  C75  1  0.30453524  0.06768819  0.46311296  1  -0.028092  0  -0.002405  0.020389  0  3.870029  0
C  C76  1  0.31545713  0.13168335  0.98326670  1  0.040754  0  -0.002937  0.052219  0  3.898589  0
C  C77  1  0.69929084  0.87529504  0.02066247  1  0.028928  0  -0.002545  0.048511  0  3.889999  0
C  C78  1  0.67614718  0.86555891  0.48547535  1  -0.010497  0  0.000289  0.053718  0  3.874192  0
C  C79  1  0.31568744  0.12966510  0.51706165  1  0.029896  0  -0.000877  0.054388  0  3.883273  0
C  C80  1  0.58522331  0.06572498  0.91789901  1  0.012897  0  -0.086114  -0.150369  0  3.986362  0
C  C81  1  0.43657234  0.94391527  0.08775327  1  -0.005172  0  -0.08718  -0.147787  0  3.993149  0
C  C82  1  0.43210312  0.93962618  0.41389422  1  -0.031544  0  -0.083814  -0.145968  0  3.995999  0
C  C83  1  0.56290960  0.05660909  0.58792399  1  -0.032647  0  -0.085723  -0.145209  0  3.990222  0
C  C84  1  0.58337793  0.00339078  0.97272922  1  -0.004899  0  -0.00907  0.021639  0  4.010038  0
C  C85  1  0.44416631  0.00762763  0.03425894  1  -0.041072  0  -0.008529  0.027838  0  4.007276  0
C  C86  1  0.43087692  0.00104223  0.46944494  1  -0.021043  0  -0.008734  0.018651  0  4.01362  0
C  C87  1  0.56188061  0.99439964  0.53297637  1  -0.016526  0  -0.00885  0.027098  0  3.999982  0
C  C88  1  0.20499490  0.08488064  0.11409875  1  -0.013899  0  -0.163421  -0.148193  0  4.000167  0
C  C89  1  0.99272091  0.04061682  0.11672169  1  -0.042118  0  -0.24611  -0.352268  0  3.952032  0
C  C90  1  0.86900767  0.94038962  0.90469929  1  -0.006231  0  -0.161003  -0.144118  0  3.987157  0
C  C91  1  0.78937915  0.90095334  0.83089313  1  -0.048353  0  -0.242115  -0.349015  0  3.953847  0
C  C92  1  0.80245723  0.91916321  0.61288593  1  0.000254  0  -0.162681  -0.142909  0  3.984697  0
C  C93  1  0.00002900  0.97469861  0.61496918  1  -0.041312  0  -0.246239  -0.353673  0  3.944992  0
C  C94  1  0.15741443  0.06780315  0.39795224  1  0.011858  0  -0.160747  -0.142704  0  3.986597  0
C  C95  1  0.24571948  0.10940486  0.32638631  1  -0.055742  0  -0.242277  -0.350078  0  3.953142  0
C  C96  1  0.81260115  0.79967333  0.01238895  1  -0.027896  0  -0.167093  -0.155412  0  3.978017  0
C  C97  1  0.67014855  0.72443233  0.99191298  1  -0.068395  0  -0.243284  -0.344529  0  3.946552  0
C  C98  1  0.18729402  0.20326839  0.98875410  1  -0.027903  0  -0.166824  -0.159265  0  3.980386  0
C  C99  1  0.31288163  0.28123616  0.01381096  1  -0.040423  0  -0.243082  -0.344528  0  3.955581  0
C  C100  1  0.20925211  0.20680801  0.50689576  1  0.000695  0  -0.166739  -0.155419  0  3.978846  0
C  C101  1  0.35993959  0.28128386  0.49238804  1  -0.06515  0  -0.243653  -0.347587  0  3.948621  0
C  C102  1  0.78398342  0.78852885  0.49512769  1  0.023041  0  -0.162967  -0.143199  0  3.987728  0
C  C103  1  0.00988369  0.79736524  0.47574170  1  -0.089513  0  -0.248397  -0.351714  0  3.929309  0
O  O104  1  0.37923065  0.80365202  0.32165112  1  -1.267116  0  -0.23387  -0.596727  0  2.36112  0
O  O105  1  0.62155165  0.19490675  0.67845776  1  -1.267653  0  -0.241913  -0.615952  0  2.349372  0
O  O106  1  0.63510276  0.21005730  0.83335344  1  -1.2636  0  -0.233847  -0.592421  0  2.33996  0
O  O107  1  0.36653048  0.79629938  0.16790293  1  -1.263238  0  -0.241309  -0.61295  0  2.344214  0
O  O108  1  0.70805384  0.80190592  0.17591251  1  -1.264933  0  -0.237198  -0.608809  0  2.356334  0
O  O109  1  0.29463253  0.19945529  0.82475288  1  -1.260273  0  -0.232549  -0.590941  0  2.347942  0
O  O110  1  0.28422045  0.20413419  0.66932364  1  -1.264246  0  -0.23535  -0.603906  0  2.366326  0
O  O111  1  0.71401202  0.79185547  0.33261029  1  -1.255581  0  -0.227718  -0.581994  0  2.36031  0
O  O112  1  0.83694698  0.64835994  0.16932674  1  -1.224686  0  -0.224316  -0.576368  0  2.289692  0
O  O113  1  0.16178726  0.34720041  0.83227805  1  -1.226705  0  -0.215504  -0.555589  0  2.289275  0
O  O114  1  0.15455933  0.35805735  0.67678469  1  -1.227408  0  -0.227285  -0.583213  0  2.285237  0
O  O115  1  0.84553431  0.64385730  0.32391451  1  -1.222106  0  -0.220602  -0.56584  0  2.288087  0
O  O116  1  0.51557059  0.67320721  0.24848386  1  -1.410473  0  -0.44691  -0.993523  0  2.200685  0
O  O117  1  0.48261535  0.32715179  0.74769197  1  -1.44383  0  -0.446407  -0.992424  0  2.202145  0
O  O118  1  0.18855994  0.65543284  0.33170102  1  -1.221096  0  -0.217541  -0.560623  0  2.300389  0
O  O119  1  0.81068033  0.34715130  0.66626396  1  -1.222316  0  -0.226275  -0.581267  0  2.295163  0
O  O120  1  0.82445677  0.35857711  0.81983636  1  -1.223349  0  -0.220035  -0.566333  0  2.298754  0
O  O121  1  0.17872079  0.64281903  0.17676124  1  -1.226844  0  -0.226677  -0.583125  0  2.294498  0
O  O122  1  0.03497548  0.77298560  0.24729854  1  -1.442145  0  -0.446358  -0.991248  0  2.197987  0
O  O123  1  0.96346525  0.22731221  0.74854550  1  -1.418274  0  -0.447228  -0.992329  0  2.195472  0
