# generated using pymatgen
data_Zr3H29C44N5(ClO8)2
_symmetry_space_group_name_H-M   'P 1'
_cell_length_a   19.07607663
_cell_length_b   19.06312772
_cell_length_c   19.06141026
_cell_angle_alpha   59.94741220
_cell_angle_beta   59.98018643
_cell_angle_gamma   59.97084272
_symmetry_Int_Tables_number   1
_chemical_formula_structural   Zr3H29C44N5(ClO8)2
_chemical_formula_sum   'Zr6 H58 C88 N10 Cl4 O32'
_cell_volume   4897.67134213
_cell_formula_units_Z   2
loop_
 _symmetry_equiv_pos_site_id
 _symmetry_equiv_pos_as_xyz
  1  'x, y, z'
loop_
 _atom_site_type_symbol
 _atom_site_label
 _atom_site_symmetry_multiplicity
 _atom_site_fract_x
 _atom_site_fract_y
 _atom_site_fract_z
 _atom_site_occupancy
 _atom_site_pbe_bader_charge
 _atom_site_pbe_bader_spin_density
 _atom_site_pbe_cm5_charge
 _atom_site_pbe_ddec_charge
 _atom_site_pbe_ddec_spin_density
 _atom_site_pbe_ddec_sum_bond_order
 _atom_site_pbe_magmom
Zr  Zr0  1  0.90782722  0.40646112  0.59243291  1  2.635196  0  1.624215  2.372788  0  2.756465  0
Zr  Zr1  1  0.09324983  0.59205621  0.40687941  1  2.635986  0  1.624061  2.372738  0  2.757491  0
Zr  Zr2  1  0.09326908  0.40692929  0.59250435  1  2.63463  0  1.624233  2.372255  0  2.757289  0
Zr  Zr3  1  0.90729015  0.59209316  0.40734043  1  2.636455  0  1.623675  2.371406  0  2.757606  0
Zr  Zr4  1  0.90769402  0.59210650  0.59250636  1  2.632168  0  1.624357  2.372212  0  2.757858  0
Zr  Zr5  1  0.09319552  0.40661363  0.40703351  1  2.63548  0  1.622615  2.372982  0  2.75312  0
H  H6  1  0.92772254  0.42620106  0.71883249  1  0.603615  0  0.329823  0.419521  0  0.862212  0
H  H7  1  0.92723098  0.71844164  0.42658998  1  0.591838  0  0.329568  0.419222  0  0.863009  0
H  H8  1  0.21915076  0.42669370  0.42682120  1  0.585453  0  0.330506  0.420599  0  0.858668  0
H  H9  1  0.92735361  0.42641991  0.42706655  1  0.597055  0  0.330723  0.420661  0  0.858689  0
H  H10  1  0.28966563  0.63283972  0.14723444  1  0.092923  0  0.105718  0.121314  0  0.99839  0
H  H11  1  0.64452540  0.43336235  0.78828500  1  0.077842  0  0.106897  0.122712  0  0.99427  0
H  H12  1  0.71971673  0.56231417  0.85707582  1  0.064815  0  0.102015  0.112424  0  1.007795  0
H  H13  1  0.59342782  0.55566495  0.99278353  1  0.060924  0  0.102209  0.106381  0  0.994245  0
H  H14  1  0.35979731  0.36014125  0.21805653  1  0.093158  0  0.102273  0.111911  0  1.005415  0
H  H15  1  0.49601552  0.35928861  0.09254094  1  0.026075  0  0.101024  0.100344  0  0.997694  0
H  H16  1  0.13365233  0.78809019  0.43358898  1  0.073464  0  0.106951  0.122915  0  0.994436  0
H  H17  1  0.93018096  0.14685288  0.63308600  1  0.089583  0  0.105674  0.121356  0  0.998544  0
H  H18  1  0.06181982  0.21786733  0.36038598  1  0.092764  0  0.102402  0.112125  0  1.005677  0
H  H19  1  0.05186154  0.09249503  0.35939686  1  0.047026  0  0.101295  0.100642  0  0.9972  0
H  H20  1  0.86072846  0.85679229  0.56255764  1  0.09846  0  0.102059  0.112764  0  1.007337  0
H  H21  1  0.85785328  0.99263043  0.55575373  1  0.059953  0  0.102254  0.106542  0  0.994323  0
H  H22  1  0.28718813  0.14298509  0.43584289  1  0.072072  0  0.106566  0.121704  0  0.996236  0
H  H23  1  0.64400122  0.78567399  0.63394512  1  0.077876  0  0.107336  0.122778  0  0.995157  0
H  H24  1  0.72053484  0.86001505  0.35979590  1  0.053061  0  0.099337  0.108921  0  1.013389  0
H  H25  1  0.59514863  0.99646690  0.35857267  1  0.062549  0  0.100389  0.100255  0  0.999041  0
H  H26  1  0.35924134  0.21913707  0.56116993  1  0.085815  0  0.102484  0.112358  0  1.005232  0
H  H27  1  0.49575429  0.09375734  0.55182964  1  0.047922  0  0.100745  0.100604  0  0.99754  0
H  H28  1  0.93666297  0.63372315  0.78582790  1  0.085727  0  0.107415  0.123496  0  0.994797  0
H  H29  1  0.13422880  0.43563454  0.14327233  1  0.07197  0  0.106658  0.121868  0  0.996089  0
H  H30  1  0.86066267  0.56084296  0.21939394  1  0.097697  0  0.102537  0.112444  0  1.004974  0
H  H31  1  0.85898526  0.55163672  0.09386692  1  0.058783  0  0.100918  0.100875  0  0.997937  0
H  H32  1  0.05969505  0.35953012  0.86041622  1  0.085939  0  0.099353  0.108687  0  1.013331  0
H  H33  1  0.05008973  0.35842253  0.99669961  1  0.05959  0  0.100333  0.100076  0  0.999012  0
H  H34  1  0.11526222  0.81831498  0.17584406  1  0.130814  0  0.102395  0.114797  0  1.033931  0
H  H35  1  0.89111289  0.81790811  0.17590224  1  0.111156  0  0.103362  0.116452  0  1.03052  0
H  H36  1  0.89060907  0.17539352  0.81873174  1  0.101754  0  0.101998  0.114444  0  1.034099  0
H  H37  1  0.11509855  0.17546907  0.81829724  1  0.141724  0  0.103355  0.116336  0  1.031484  0
H  H38  1  0.28725617  0.43460513  0.63358553  1  0.067782  0  0.10669  0.122225  0  0.995715  0
H  H39  1  0.64368359  0.63331082  0.43608806  1  0.081506  0  0.106774  0.122709  0  0.995119  0
H  H40  1  0.72021316  0.35931648  0.56033747  1  0.092647  0  0.102179  0.112661  0  1.006307  0
H  H41  1  0.59489878  0.35775114  0.55085688  1  0.049833  0  0.100669  0.100703  0  0.995963  0
H  H42  1  0.35987333  0.56046358  0.35981061  1  0.093616  0  0.101991  0.112541  0  1.006177  0
H  H43  1  0.49632244  0.55061147  0.35840774  1  0.058644  0  0.100556  0.100511  0  0.997298  0
H  H44  1  0.46748818  0.65357033  0.94650968  1  0.448328  0  0.297901  0.291259  0  0.973561  0
H  H45  1  0.37268095  0.70590983  0.00872238  1  0.431998  0  0.303629  0.29829  0  0.949899  0
H  H46  1  0.45473068  0.41761410  0.97833304  1  0.44804  0  0.294212  0.288748  0  0.995364  0
H  H47  1  0.52001375  0.39088042  0.88687185  1  0.42768  0  0.307191  0.301824  0  0.9441  0
H  H48  1  0.14907970  0.97825525  0.41769460  1  0.442582  0  0.294364  0.288862  0  0.995449  0
H  H49  1  0.20207428  0.88659038  0.39122903  1  0.417772  0  0.307564  0.302426  0  0.943587  0
H  H50  1  0.93211535  0.94629941  0.65366820  1  0.450872  0  0.298194  0.291366  0  0.973829  0
H  H51  1  0.91244197  0.00846575  0.70603000  1  0.429912  0  0.303721  0.297674  0  0.949855  0
H  H52  1  0.47785965  0.95326683  0.41865763  1  0.448105  0  0.29548  0.29025  0  0.991413  0
H  H53  1  0.38580750  0.01795460  0.39282636  1  0.425221  0  0.306949  0.300929  0  0.945902  0
H  H54  1  0.45287537  0.97519722  0.65141126  1  0.457887  0  0.297377  0.292757  0  0.988718  0
H  H55  1  0.51779710  0.88290786  0.70439338  1  0.451437  0  0.308812  0.303826  0  0.942807  0
H  H56  1  0.92082989  0.65126048  0.97529041  1  0.442671  0  0.297237  0.292653  0  0.98893  0
H  H57  1  0.89502783  0.70416514  0.88312680  1  0.451203  0  0.30857  0.302592  0  0.944011  0
H  H58  1  0.15049521  0.41842789  0.95356104  1  0.443625  0  0.295244  0.289545  0  0.991371  0
H  H59  1  0.20365879  0.39247722  0.01830272  1  0.454627  0  0.307026  0.30107  0  0.945618  0
H  H60  1  0.47600937  0.42002289  0.65136788  1  0.443902  0  0.297375  0.292244  0  0.989441  0
H  H61  1  0.38205701  0.39654669  0.70496892  1  0.441214  0  0.309147  0.304559  0  0.943923  0
H  H62  1  0.45327680  0.65032768  0.41973521  1  0.4495  0  0.296112  0.290513  0  0.991165  0
H  H63  1  0.51740769  0.70368033  0.39536908  1  0.4311  0  0.30815  0.302275  0  0.944932  0
C  C64  1  0.76426102  0.50042123  0.73451997  1  1.538891  0  0.235574  0.643838  0  4.091834  0
C  C65  1  0.00069547  0.73421027  0.50077127  1  1.550036  0  0.235512  0.64544  0  4.089975  0
C  C66  1  0.23538854  0.49951649  0.26342538  1  1.535702  0  0.234413  0.641315  0  4.098192  0
C  C67  1  0.00168749  0.26303123  0.49982613  1  1.559779  0  0.234574  0.641753  0  4.096986  0
C  C68  1  0.00299753  0.26036829  0.73313861  1  1.559464  0  0.235737  0.637307  0  4.105316  0
C  C69  1  0.76356374  0.49952089  0.50195957  1  1.547534  0  0.235469  0.642121  0  4.09483  0
C  C70  1  0.00347408  0.73272519  0.26078326  1  1.589304  0  0.235732  0.637863  0  4.103578  0
C  C71  1  0.23494484  0.50147126  0.49991545  1  1.549912  0  0.23528  0.643074  0  4.094736  0
C  C72  1  0.00201453  0.49953389  0.73460173  1  1.542245  0  0.235534  0.641961  0  4.096568  0
C  C73  1  0.23468829  0.26274277  0.50201576  1  1.536171  0  0.23527  0.643301  0  4.093165  0
C  C74  1  0.00066284  0.50164941  0.26312191  1  1.557345  0  0.235377  0.643703  0  4.092325  0
C  C75  1  0.76390097  0.73425106  0.49988631  1  1.557964  0  0.234403  0.640331  0  4.096331  0
C  C76  1  0.31632564  0.49733933  0.18838867  1  0.00815  0  -0.023429  -0.025527  0  4.032489  0
C  C77  1  0.68866478  0.49824713  0.81504023  1  -0.036397  0  -0.022105  -0.022139  0  4.029966  0
C  C78  1  0.33481181  0.57335215  0.13343036  1  -0.06026  0  -0.098312  -0.211438  0  3.941753  0
C  C79  1  0.40891430  0.57470339  0.06030204  1  0.383111  0  0.095174  0.256871  0  4.079647  0
C  C80  1  0.63213468  0.46062066  0.83352251  1  0.011001  0  -0.09991  -0.215204  0  3.943123  0
C  C81  1  0.55863656  0.46009499  0.90738186  1  0.404711  0  0.094905  0.258819  0  4.089593  0
C  C82  1  0.67461016  0.53395288  0.87175735  1  -0.039579  0  -0.108618  -0.143142  0  4.045558  0
C  C83  1  0.60380872  0.53058566  0.94670685  1  -0.077849  0  -0.097725  -0.127855  0  4.050624  0
C  C84  1  0.37389566  0.41942996  0.17362347  1  -0.051235  0  -0.1072  -0.137155  0  4.041421  0
C  C85  1  0.44893557  0.41987995  0.10303295  1  -0.015824  0  -0.099572  -0.138266  0  4.062429  0
C  C86  1  0.46739324  0.49616616  0.04429591  1  -0.019448  0  -0.01818  -0.023893  0  3.957154  0
C  C87  1  0.54444679  0.49511388  0.96594940  1  0.01131  0  -0.020713  -0.037406  0  3.967133  0
C  C88  1  0.99787718  0.81482020  0.49848362  1  -0.086522  0  -0.023033  -0.023091  0  4.03164  0
C  C89  1  0.99785411  0.18806874  0.49759679  1  0.00494  0  -0.023479  -0.02433  0  4.030713  0
C  C90  1  0.07352640  0.83333994  0.46080999  1  0.025205  0  -0.099962  -0.215967  0  3.94556  0
C  C91  1  0.07363778  0.90727989  0.46018128  1  0.424122  0  0.094914  0.258901  0  4.091371  0
C  C92  1  0.95825547  0.13311167  0.57356810  1  -0.003075  0  -0.098191  -0.212023  0  3.940706  0
C  C93  1  0.95581308  0.06007975  0.57484732  1  0.376075  0  0.095286  0.257117  0  4.078385  0
C  C94  1  0.03287575  0.17341603  0.41965055  1  -0.09865  0  -0.107233  -0.137833  0  4.041582  0
C  C95  1  0.02786974  0.10292837  0.42001858  1  -0.034042  0  -0.100011  -0.138776  0  4.06266  0
C  C96  1  0.91948115  0.87154020  0.53414069  1  -0.020964  0  -0.109061  -0.143919  0  4.045739  0
C  C97  1  0.91864141  0.94655460  0.53069200  1  -0.109426  0  -0.096875  -0.127324  0  4.050736  0
C  C98  1  0.99421362  0.96583622  0.49517730  1  0.0263  0  -0.020639  -0.037056  0  3.966691  0
C  C99  1  0.99183442  0.04418272  0.49625631  1  0.002394  0  -0.017995  -0.023838  0  3.95674  0
C  C100  1  0.31543048  0.18738134  0.49923779  1  0.056871  0  -0.022448  -0.023615  0  4.028403  0
C  C101  1  0.68855170  0.81502089  0.49759977  1  -0.00165  0  -0.022589  -0.021093  0  4.029619  0
C  C102  1  0.33318782  0.13074391  0.46205652  1  -0.034122  0  -0.09931  -0.213499  0  3.941836  0
C  C103  1  0.40711274  0.05731555  0.46086072  1  0.405163  0  0.095645  0.259376  0  4.08937  0
C  C104  1  0.63175283  0.83207145  0.57398782  1  -0.035978  0  -0.09862  -0.21467  0  3.940676  0
C  C105  1  0.55805467  0.90578570  0.57501641  1  0.349114  0  0.096468  0.262009  0  4.089117  0
C  C106  1  0.67514058  0.87341822  0.41921550  1  0.029041  0  -0.109378  -0.142734  0  4.048514  0
C  C107  1  0.60446636  0.94850277  0.41939585  1  -0.096573  0  -0.100356  -0.139028  0  4.068986  0
C  C108  1  0.37317970  0.17385756  0.53335438  1  -0.093705  0  -0.106833  -0.13674  0  4.037156  0
C  C109  1  0.44834719  0.10325417  0.52891755  1  -0.02665  0  -0.099517  -0.138807  0  4.064697  0
C  C110  1  0.46650578  0.04347238  0.49450520  1  -0.042388  0  -0.018615  -0.027476  0  3.959109  0
C  C111  1  0.54437340  0.96583199  0.49577096  1  0.037391  0  -0.019316  -0.028202  0  3.957115  0
C  C112  1  0.99899033  0.49734493  0.81528671  1  -0.048617  0  -0.022861  -0.021177  0  4.029447  0
C  C113  1  0.99815932  0.49901814  0.18763541  1  0.000556  0  -0.022514  -0.024506  0  4.029457  0
C  C114  1  0.96246375  0.57377486  0.83223963  1  -0.014472  0  -0.098757  -0.215527  0  3.940521  0
C  C115  1  0.96146481  0.57485777  0.90590910  1  0.382619  0  0.096792  0.262025  0  4.088847  0
C  C116  1  0.07427341  0.46189199  0.13097964  1  -0.003229  0  -0.098987  -0.213313  0  3.942188  0
C  C117  1  0.07501887  0.46073583  0.05751305  1  0.408374  0  0.095535  0.259429  0  4.089342  0
C  C118  1  0.91984464  0.53310077  0.17407627  1  -0.035534  0  -0.10663  -0.136272  0  4.037721  0
C  C119  1  0.91977188  0.52873512  0.10340995  1  -0.112829  0  -0.099566  -0.139058  0  4.064743  0
C  C120  1  0.03236263  0.41898956  0.87371276  1  -0.031345  0  -0.109363  -0.142091  0  4.046463  0
C  C121  1  0.02789392  0.41923318  0.94872282  1  -0.031172  0  -0.100648  -0.139103  0  4.067493  0
C  C122  1  0.99437293  0.49563978  0.96596519  1  -0.008776  0  -0.019209  -0.02876  0  3.958149  0
C  C123  1  0.99585274  0.49438314  0.04361397  1  -0.009785  0  -0.018904  -0.027364  0  3.959652  0
C  C124  1  0.06669712  0.84804846  0.14597305  1  -0.050118  0  -0.081483  -0.128164  0  3.926855  0
C  C125  1  0.06753706  0.92186828  0.07279566  1  -0.015398  0  -0.009938  0.031596  0  4.022305  0
C  C126  1  0.13219754  0.96115906  0.03345140  1  0.146148  0  0.007082  0.034337  0  4.032585  0
C  C127  1  0.93945587  0.84803525  0.14624239  1  -0.034873  0  -0.079647  -0.125398  0  3.920857  0
C  C128  1  0.93769222  0.92202507  0.07322719  1  -0.005916  0  -0.009413  0.032438  0  4.017961  0
C  C129  1  0.87283018  0.96128684  0.03418060  1  0.143472  0  0.007675  0.035626  0  4.032838  0
C  C130  1  0.93932171  0.14554007  0.84845116  1  0.094066  0  -0.081388  -0.127928  0  3.926371  0
C  C131  1  0.93783292  0.07236081  0.92229860  1  -0.012836  0  -0.009616  0.031209  0  4.021141  0
C  C132  1  0.87322318  0.03303162  0.96156178  1  0.072152  0  0.006651  0.034329  0  4.034231  0
C  C133  1  0.06629748  0.14580397  0.84841700  1  0.011263  0  -0.079857  -0.125326  0  3.921783  0
C  C134  1  0.06710541  0.07278472  0.92241638  1  -0.029299  0  -0.009443  0.031454  0  4.017724  0
C  C135  1  0.13175750  0.03374948  0.96166933  1  0.074429  0  0.007645  0.035972  0  4.033003  0
C  C136  1  0.00341136  0.81148190  0.18207117  1  0.048934  0  -0.012651  -0.018362  0  3.974815  0
C  C137  1  0.00244882  0.96011061  0.03508929  1  0.053478  0  0.005544  0.015091  0  3.926843  0
C  C138  1  0.00304806  0.18165817  0.81188245  1  -0.081467  0  -0.012246  -0.017689  0  3.975989  0
C  C139  1  0.00238343  0.03464526  0.96054870  1  -0.005988  0  0.005526  0.015489  0  3.925706  0
C  C140  1  0.31568447  0.49844878  0.49746346  1  -0.004494  0  -0.022723  -0.023217  0  4.031627  0
C  C141  1  0.68824159  0.49705257  0.49904057  1  -0.019031  0  -0.022338  -0.021527  0  4.02892  0
C  C142  1  0.33320001  0.46113656  0.57371320  1  -0.068073  0  -0.09893  -0.214699  0  3.941029  0
C  C143  1  0.40683792  0.46019567  0.57469300  1  0.434398  0  0.096261  0.261574  0  4.093645  0
C  C144  1  0.63149288  0.57330086  0.46213761  1  -0.008985  0  -0.099538  -0.215444  0  3.942912  0
C  C145  1  0.55796230  0.57412771  0.46107907  1  0.455703  0  0.096381  0.260622  0  4.092099  0
C  C146  1  0.67480744  0.41865454  0.53280179  1  -0.065947  0  -0.108453  -0.141715  0  4.041488  0
C  C147  1  0.60422976  0.41863168  0.52827156  1  -0.08903  0  -0.099789  -0.136711  0  4.061676  0
C  C148  1  0.37359114  0.53255337  0.41914291  1  -0.036425  0  -0.108716  -0.141384  0  4.043053  0
C  C149  1  0.44874490  0.52784184  0.41923650  1  -0.009748  0  -0.099983  -0.138453  0  4.064891  0
C  C150  1  0.46659544  0.49350785  0.49546559  1  -0.051276  0  -0.019084  -0.027559  0  3.955359  0
C  C151  1  0.54427577  0.49485442  0.49421980  1  -0.005755  0  -0.019066  -0.029894  0  3.958721  0
N  N152  1  0.42464341  0.65175924  0.00650125  1  -1.228887  0  -0.601207  -0.62783  0  3.335716  0
N  N153  1  0.49926857  0.43034692  0.91917144  1  -1.230988  0  -0.604101  -0.630334  0  3.345947  0
N  N154  1  0.15092398  0.91910862  0.43043439  1  -1.231274  0  -0.604071  -0.630307  0  3.347286  0
N  N155  1  0.91682840  0.00626649  0.65187820  1  -1.245552  0  -0.602043  -0.627608  0  3.335432  0
N  N156  1  0.41866418  0.99768659  0.43159630  1  -1.234544  0  -0.602849  -0.628375  0  3.346853  0
N  N157  1  0.49821466  0.91651387  0.65252673  1  -1.269299  0  -0.601491  -0.628978  0  3.348881  0
N  N158  1  0.93306997  0.65239986  0.91658540  1  -1.253843  0  -0.601505  -0.627713  0  3.349097  0
N  N159  1  0.15239185  0.43144563  0.99789453  1  -1.258865  0  -0.603126  -0.628246  0  3.345089  0
N  N160  1  0.41786790  0.43148741  0.65200667  1  -1.25454  0  -0.601382  -0.629269  0  3.359928  0
N  N161  1  0.49820757  0.65155397  0.43238307  1  -1.252694  0  -0.60214  -0.627401  0  3.35244  0
Cl  Cl162  1  0.20947132  0.07976315  0.91613699  1  -0.193334  0  -0.006368  -0.066372  0  1.533378  0
Cl  Cl163  1  0.21130566  0.91454413  0.07810473  1  -0.199166  0  -0.007431  -0.069105  0  1.535801  0
Cl  Cl164  1  0.79610327  0.07766889  0.91491842  1  -0.19629  0  -0.007317  -0.068919  0  1.536165  0
Cl  Cl165  1  0.79461519  0.91576345  0.08020633  1  -0.196292  0  -0.006217  -0.066432  0  1.532897  0
O  O166  1  0.79249449  0.44324157  0.70144936  1  -1.175932  0  -0.358374  -0.623394  0  2.269934  0
O  O167  1  0.06274766  0.70109343  0.44364866  1  -1.182677  0  -0.357949  -0.62378  0  2.269604  0
O  O168  1  0.20140059  0.56192674  0.29131500  1  -1.186091  0  -0.358512  -0.62237  0  2.284071  0
O  O169  1  0.94543234  0.29087018  0.56228523  1  -1.187682  0  -0.358623  -0.623086  0  2.284575  0
O  O170  1  0.06297454  0.29023673  0.70243127  1  -1.176914  0  -0.347852  -0.606819  0  2.2784  0
O  O171  1  0.79133450  0.56200701  0.44551696  1  -1.187142  0  -0.357362  -0.622087  0  2.275274  0
O  O172  1  0.94433516  0.70202182  0.29063406  1  -1.178011  0  -0.347987  -0.607378  0  2.278265  0
O  O173  1  0.20106545  0.44509202  0.56243572  1  -1.188823  0  -0.357344  -0.622339  0  2.277224  0
O  O174  1  0.94561408  0.56181036  0.70071345  1  -1.184413  0  -0.356871  -0.620988  0  2.277714  0
O  O175  1  0.20104878  0.29044939  0.44549939  1  -1.186464  0  -0.356835  -0.622177  0  2.276997  0
O  O176  1  0.06307248  0.44508821  0.29087244  1  -1.187798  0  -0.357018  -0.622122  0  2.27647  0
O  O177  1  0.79188310  0.70031673  0.56220174  1  -1.188251  0  -0.35641  -0.620391  0  2.276769  0
O  O178  1  0.20557002  0.29480981  0.56028294  1  -1.17526  0  -0.359248  -0.621196  0  2.271627  0
O  O179  1  0.93939126  0.55986311  0.29523393  1  -1.189291  0  -0.359402  -0.621147  0  2.27197  0
O  O180  1  0.79568787  0.70536704  0.43855942  1  -1.17721  0  -0.359288  -0.62059  0  2.27263  0
O  O181  1  0.06040569  0.43815120  0.70577277  1  -1.179478  0  -0.359239  -0.621164  0  2.27291  0
O  O182  1  0.94208177  0.29171066  0.70419534  1  -1.180413  0  -0.35052  -0.609069  0  2.278187  0
O  O183  1  0.20591953  0.55979520  0.43861801  1  -1.180583  0  -0.35876  -0.621253  0  2.272585  0
O  O184  1  0.06197291  0.70379771  0.29214474  1  -1.180006  0  -0.350247  -0.60915  0  2.278114  0
O  O185  1  0.79560381  0.43821048  0.56025278  1  -1.180678  0  -0.358634  -0.620818  0  2.273714  0
O  O186  1  0.06021096  0.29467755  0.43864426  1  -1.189858  0  -0.357609  -0.620412  0  2.270766  0
O  O187  1  0.79602342  0.55900554  0.70496726  1  -1.174368  0  -0.358582  -0.620983  0  2.27793  0
O  O188  1  0.93991864  0.70464049  0.55940080  1  -1.190335  0  -0.358542  -0.621753  0  2.277212  0
O  O189  1  0.20642457  0.43831417  0.29508398  1  -1.175932  0  -0.357274  -0.6198  0  2.271407  0
O  O190  1  0.94815817  0.44720229  0.44772650  1  -1.226756  0  -0.695177  -1.065613  0  2.369282  0
O  O191  1  0.15690179  0.44731776  0.44761635  1  -1.215567  0  -0.695263  -1.065421  0  2.36916  0
O  O192  1  0.94843800  0.65614014  0.44688991  1  -1.223491  0  -0.693877  -1.06619  0  2.366912  0
O  O193  1  0.94852188  0.44649450  0.65653249  1  -1.233914  0  -0.694624  -1.067602  0  2.366917  0
O  O194  1  0.03889608  0.53797664  0.53815539  1  -1.200744  0  -0.791734  -1.148513  0  2.132505  0
O  O195  1  0.88499394  0.53774643  0.53836298  1  -1.201063  0  -0.791731  -1.148101  0  2.132062  0
O  O196  1  0.03874829  0.53803849  0.38414913  1  -1.198003  0  -0.790071  -1.149098  0  2.123649  0
O  O197  1  0.03908158  0.38373766  0.53843704  1  -1.192389  0  -0.790025  -1.148831  0  2.123441  0
