# generated using pymatgen
data_Zn2H21C45N9O13
_symmetry_space_group_name_H-M   'P 1'
_cell_length_a   10.88024281
_cell_length_b   12.62592839
_cell_length_c   13.62366315
_cell_angle_alpha   74.45859495
_cell_angle_beta   85.00405984
_cell_angle_gamma   70.54235746
_symmetry_Int_Tables_number   1
_chemical_formula_structural   Zn2H21C45N9O13
_chemical_formula_sum   'Zn2 H21 C45 N9 O13'
_cell_volume   1700.11399186
_cell_formula_units_Z   1
loop_
 _symmetry_equiv_pos_site_id
 _symmetry_equiv_pos_as_xyz
  1  'x, y, z'
loop_
 _atom_site_type_symbol
 _atom_site_label
 _atom_site_symmetry_multiplicity
 _atom_site_fract_x
 _atom_site_fract_y
 _atom_site_fract_z
 _atom_site_occupancy
 _atom_site_pbe_bader_charge
 _atom_site_pbe_bader_spin_density
 _atom_site_pbe_cm5_charge
 _atom_site_pbe_ddec_charge
 _atom_site_pbe_ddec_spin_density
 _atom_site_pbe_ddec_sum_bond_order
 _atom_site_pbe_magmom
Zn  Zn0  1  0.42830543  0.63134613  0.49699460  1  1.288303  0  0.692402  0.86455  0  2.324444  0
Zn  Zn1  1  0.52993516  0.36993945  0.51111972  1  1.32723  0  0.698948  0.880823  0  2.314511  0
H  H2  1  0.79809187  0.67875655  0.40209919  1  0.122682  0  0.111563  0.136514  0  1.006562  0
H  H3  1  0.25697606  0.10468174  0.68738342  1  0.127121  0  0.11636  0.139439  0  1.001902  0
H  H4  1  0.70087394  0.26054360  0.37708984  1  0.156937  0  0.128914  0.109239  0  0.993325  0
H  H5  1  0.63423655  0.94423645  0.36993987  1  0.179853  0  0.125089  0.143412  0  1.009088  0
H  H6  1  0.82545024  0.57951448  0.60666327  1  0.103218  0  0.111269  0.129996  0  0.96444  0
H  H7  1  0.03490318  0.57225480  0.62832267  1  0.118816  0  0.130763  0.124359  0  0.937139  0
H  H8  1  0.94677223  0.37986269  0.38392717  1  0.101566  0  0.12823  0.121394  0  0.924636  0
H  H9  1  0.13426378  0.43236632  0.36684810  1  0.070873  0  0.108393  0.123027  0  0.961207  0
H  H10  1  0.76580702  0.65412513  0.90158588  1  0.615344  0  0.355537  0.386153  0  0.838349  0
H  H11  1  0.09374464  0.04280250  0.64381929  1  0.660072  0  0.296203  0.342925  0  1.00337  0
H  H12  1  0.61894275  0.70737465  0.48146544  1  0.676064  0  0.308201  0.353499  0  0.992979  0
H  H13  1  0.18512921  0.33228506  0.48563610  1  0.093061  0  0.102135  0.11381  0  1.007767  0
H  H14  1  0.34735187  0.24351001  0.69910943  1  0.641722  0  0.313704  0.356549  0  0.957944  0
H  H15  1  0.14240944  0.67776687  0.33935143  1  0.617902  0  0.322883  0.370935  0  0.89127  0
H  H16  1  0.87527529  0.42614105  0.64823793  1  0.070373  0  0.109314  0.123442  0  0.964814  0
H  H17  1  0.53337001  0.24649956  0.80943782  1  0.126577  0  0.12034  0.138697  0  0.990308  0
H  H18  1  0.46617830  0.25169473  0.15787906  1  0.097695  0  0.110822  0.118172  0  0.991236  0
H  H19  1  0.71589686  0.72923814  0.03918790  1  0.072487  0  0.122198  0.143261  0  0.974654  0
H  H20  1  0.89166500  0.58726683  0.32676298  1  0.069887  0  0.11255  0.136148  0  0.953888  0
H  H21  1  0.44719716  0.39461186  0.25537463  1  0.137765  0  0.107103  0.124967  0  1.037329  0
H  H22  1  0.21282110  0.78111902  0.58796016  1  0.133089  0  0.123796  0.118247  0  0.982601  0
C  C23  1  0.49154083  0.56275437  0.30839784  1  1.578224  0  0.212966  0.593625  0  4.177538  0
C  C24  1  0.57844657  0.52170696  0.03525405  1  0.040775  0  -0.000995  -0.066598  0  3.880084  0
C  C25  1  0.53170529  0.50414456  0.13835917  1  -0.005228  0  0.007297  0.086844  0  3.946667  0
C  C26  1  0.73158172  0.48572584  0.48235192  1  1.603648  0  0.225924  0.592666  0  4.102324  0
C  C27  1  0.55548087  0.45569733  0.97011779  1  0.014944  0  0.021012  0.038725  0  3.86632  0
C  C28  1  0.52778473  0.35094962  0.01869504  1  -0.044615  0  0.0126  0.053522  0  3.975378  0
C  C29  1  0.49312094  0.32943440  0.12359852  1  -0.016022  0  -0.081672  -0.121084  0  4.008744  0
C  C30  1  0.48395139  0.40776496  0.17803973  1  0.001889  0  -0.086383  -0.116676  0  3.968306  0
C  C31  1  0.54637241  0.49280563  0.86102274  1  0.083519  0  0.02192  0.006185  0  3.985504  0
C  C32  1  0.53443232  0.30506477  0.85499426  1  -0.028455  0  -0.060269  -0.110748  0  3.909421  0
C  C33  1  0.53762218  0.57790010  0.19991383  1  0.008318  0  -0.008814  -0.129607  0  3.871634  0
C  C34  1  0.10037144  0.51132715  0.49241318  1  0.007232  0  -0.0063  -0.079532  0  3.754521  0
C  C35  1  0.25263659  0.92896969  0.60897181  1  0.579249  0  0.078721  0.214945  0  4.086906  0
C  C36  1  0.65626637  0.19311843  0.40823042  1  0.523809  0  0.071551  0.072985  0  3.882726  0
C  C37  1  0.68086199  0.09847244  0.36497851  1  0.071692  0  0.014389  0.021412  0  4.084804  0
C  C38  1  0.51539538  0.45076064  0.69204239  1  1.62654  0  0.218491  0.593757  0  4.187664  0
C  C39  1  0.61899823  0.01572948  0.40482536  1  0.036951  0  -0.034264  -0.073066  0  3.806116  0
C  C40  1  0.53230940  0.02868752  0.48728635  1  0.036559  0  0.013552  0.048701  0  3.948242  0
C  C41  1  0.51298951  0.12686612  0.52703100  1  0.465493  0  0.120893  0.112893  0  3.90674  0
C  C42  1  0.45376002  0.95427567  0.52579145  1  0.046018  0  -0.011044  -0.113164  0  3.956268  0
C  C43  1  0.34321735  0.99221545  0.58674448  1  0.010701  0  2e-05  0.031005  0  4.041753  0
C  C44  1  0.33221756  0.08516652  0.63052814  1  0.023056  0  -0.097484  -0.250641  0  3.958102  0
C  C45  1  0.03638788  0.49758509  0.60034998  1  0.070114  0  -0.047497  -0.045896  0  3.870813  0
C  C46  1  0.42217562  0.14333947  0.60971987  1  0.53452  0  0.095419  0.258419  0  4.073255  0
C  C47  1  0.48270448  0.84264479  0.50832003  1  1.144953  0  0.223952  0.437337  0  4.060448  0
C  C48  1  0.28126295  0.82974425  0.57510763  1  0.47117  0  0.028466  -0.011802  0  3.925956  0
C  C49  1  0.23784509  0.51749372  0.49966484  1  1.61553  0  0.22003  0.582635  0  4.150875  0
C  C50  1  0.88307239  0.60180856  0.40344297  1  -0.055605  0  -0.15083  -0.279398  0  3.775043  0
C  C51  1  0.00903285  0.62544989  0.42242945  1  0.60909  0  0.101051  0.288608  0  3.868348  0
C  C52  1  0.89367622  0.49939561  0.59149470  1  -0.050025  0  -0.145518  -0.218695  0  3.800215  0
C  C53  1  0.97387170  0.38787759  0.45691963  1  0.101971  0  -0.054287  -0.056992  0  3.895455  0
C  C54  1  0.86881322  0.49401241  0.48329993  1  0.024326  0  -0.006021  0.022135  0  3.790627  0
C  C55  1  0.11556346  0.39495670  0.67254614  1  0.892437  0  0.210362  0.309949  0  3.906329  0
C  C56  1  0.10735909  0.40997575  0.44746805  1  -0.048375  0  -0.152095  -0.209141  0  3.833366  0
C  C57  1  0.50641511  0.16493534  0.00891248  1  0.855643  0  0.179611  0.234055  0  4.023148  0
C  C58  1  0.53676155  0.60912779  0.80698083  1  0.88444  0  0.176389  0.251161  0  4.041325  0
C  C59  1  0.61121757  0.74155788  0.21402721  1  0.862477  0  0.182924  0.250559  0  3.996969  0
C  C60  1  0.76298700  0.09338631  0.27766914  1  0.848881  0  0.182245  0.239092  0  4.017483  0
C  C61  1  0.97431477  0.72284995  0.47158000  1  0.889568  0  0.176225  0.189222  0  3.916859  0
C  C62  1  0.98292583  0.27818118  0.53088213  1  0.907389  0  0.203868  0.297587  0  3.936661  0
C  C63  1  0.52456749  0.27373876  0.96033224  1  0.130899  0  0.020084  0.034796  0  4.055173  0
C  C64  1  0.53522210  0.41728284  0.80531086  1  0.029647  0  0.004627  -0.036156  0  3.925438  0
C  C65  1  0.59713236  0.66371517  0.15953113  1  0.126605  0  0.019257  0.0872  0  4.080853  0
C  C66  1  0.65964375  0.66962069  0.06434959  1  0.021876  0  -0.09328  -0.269013  0  3.960625  0
C  C67  1  0.65491528  0.59714652  0.00502943  1  0.463746  0  0.099312  0.297089  0  4.080355  0
N  N68  1  0.39565282  0.78589323  0.52822813  1  -1.267897  0  -0.353174  -0.344256  0  3.584429  0
N  N69  1  0.57496971  0.20701379  0.48628203  1  -1.249978  0  -0.3143  -0.236646  0  3.50396  0
N  N70  1  0.18250968  0.31432870  0.72994296  1  -1.202666  0  -0.303636  -0.386111  0  2.836034  0
N  N71  1  0.49141882  0.07546546  0.04702041  1  -1.096497  0  -0.302099  -0.344711  0  2.679774  0
N  N72  1  0.52562814  0.70491654  0.76272698  1  -1.11568  0  -0.305408  -0.351843  0  2.717207  0
N  N73  1  0.63533519  0.80722635  0.24917688  1  -1.120841  0  -0.296133  -0.345604  0  2.750798  0
N  N74  1  0.82771114  0.09341053  0.20461848  1  -1.106366  0  -0.308076  -0.34961  0  2.666972  0
N  N75  1  0.94100130  0.80011778  0.50991957  1  -1.14445  0  -0.308698  -0.337669  0  2.704732  0
N  N76  1  0.00074737  0.18902846  0.59030375  1  -1.219065  0  -0.290961  -0.370729  0  2.871942  0
O  O77  1  0.45495406  0.65289249  0.34258330  1  -1.15424  0  -0.305432  -0.525237  0  2.315183  0
O  O78  1  0.14354137  0.95839407  0.66563485  1  -1.179766  0  -0.369378  -0.457263  0  2.28825  0
O  O79  1  0.60121989  0.79255123  0.47502121  1  -1.203321  0  -0.332324  -0.463092  0  2.399873  0
O  O80  1  0.43039227  0.21741738  0.66186275  1  -1.148684  0  -0.331398  -0.421313  0  2.413288  0
O  O81  1  0.06817469  0.65570607  0.32634101  1  -1.082936  0  -0.377714  -0.490873  0  2.128244  0
O  O82  1  0.49521091  0.46140980  0.36011124  1  -1.188245  0  -0.317636  -0.569526  0  2.42105  0
O  O83  1  0.63839431  0.57231699  0.49996933  1  -1.190384  0  -0.307178  -0.567491  0  2.415965  0
O  O84  1  0.72015396  0.39471454  0.46895128  1  -1.15558  0  -0.292935  -0.523494  0  2.29757  0
O  O85  1  0.43581532  0.54915990  0.65135881  1  -1.167821  0  -0.303563  -0.533131  0  2.337565  0
O  O86  1  0.57815545  0.37176879  0.64782943  1  -1.151267  0  -0.311752  -0.532394  0  2.376415  0
O  O87  1  0.24831287  0.61841782  0.48190691  1  -1.161095  0  -0.300636  -0.537146  0  2.348708  0
O  O88  1  0.32768370  0.42153011  0.52428057  1  -1.183926  0  -0.302308  -0.54151  0  2.426545  0
O  O89  1  0.73015223  0.59008556  0.92053063  1  -1.113508  0  -0.328388  -0.428806  0  2.319034  0
