# generated using pymatgen
data_AlH7C12O6F
_symmetry_space_group_name_H-M   'P 1'
_cell_length_a   6.69435456
_cell_length_b   11.15139311
_cell_length_c   15.33434148
_cell_angle_alpha   81.15225785
_cell_angle_beta   77.33041781
_cell_angle_gamma   73.41030744
_symmetry_Int_Tables_number   1
_chemical_formula_structural   AlH7C12O6F
_chemical_formula_sum   'Al2 H14 C24 O12 F2'
_cell_volume   1065.26440361
_cell_formula_units_Z   2
loop_
 _symmetry_equiv_pos_site_id
 _symmetry_equiv_pos_as_xyz
  1  'x, y, z'
loop_
 _atom_site_type_symbol
 _atom_site_label
 _atom_site_symmetry_multiplicity
 _atom_site_fract_x
 _atom_site_fract_y
 _atom_site_fract_z
 _atom_site_occupancy
 _atom_site_pbe_bader_charge
 _atom_site_pbe_bader_spin_density
 _atom_site_pbe_cm5_charge
 _atom_site_pbe_ddec_charge
 _atom_site_pbe_ddec_spin_density
 _atom_site_pbe_ddec_sum_bond_order
 _atom_site_pbe_magmom
Al  Al0  1  0.50416250  0.50084821  0.49509457  1  2.504847  0  0.404238  1.637064  0  2.578438  0
Al  Al1  1  0.00706754  0.49610676  0.49450650  1  2.504179  0  0.397885  1.642488  0  2.585861  0
H  H2  1  0.29493192  0.35422347  0.56018666  1  0.61768  0  0.350837  0.425327  0  0.864747  0
H  H3  1  0.72884115  0.63843561  0.42362180  1  0.636806  0  0.355108  0.436269  0  0.847297  0
H  H4  1  0.86882343  0.47829369  0.93337412  1  0.030114  0  0.105915  0.121717  0  1.015986  0
H  H5  1  0.18175194  0.45569318  0.05781008  1  0.082574  0  0.105597  0.120288  0  1.013466  0
H  H6  1  0.68658502  0.53228492  0.22235389  1  0.123385  0  0.10659  0.11442  0  1.022192  0
H  H7  1  0.76832099  0.54824720  0.05756034  1  0.051812  0  0.09806  0.099465  0  1.028036  0
H  H8  1  0.28810403  0.54426887  0.76455123  1  0.131089  0  0.104991  0.114273  0  1.039971  0
H  H9  1  0.20095741  0.54666053  0.92836374  1  0.030412  0  0.09784  0.098707  0  1.029593  0
H  H10  1  0.21091397  0.10039837  0.64390973  1  0.046636  0  0.101394  0.112728  0  0.97338  0
H  H11  1  0.38658267  0.11969349  0.53947326  1  0.074681  0  0.094376  0.10677  0  1.017923  0
H  H12  1  0.51484289  0.88461845  0.53812252  1  0.068932  0  0.094623  0.108881  0  1.011416  0
H  H13  1  0.33759761  0.86571163  0.64144773  1  0.071158  0  0.103591  0.116839  0  0.971492  0
H  H14  1  0.99433313  0.49637489  0.69829297  1  0.649341  0  0.314006  0.358829  0  0.961039  0
H  H15  1  0.04754781  0.44956702  0.29213785  1  0.663074  0  0.31465  0.359896  0  0.955587  0
C  C16  1  0.85646269  0.27295983  0.49514286  1  1.584811  0  0.27729  0.679127  0  4.07272  0
C  C17  1  0.67055208  0.51118604  0.65720557  1  1.494965  0  0.26027  0.647732  0  4.092869  0
C  C18  1  0.15420734  0.72433337  0.48716587  1  1.615861  0  0.27652  0.677514  0  4.083577  0
C  C19  1  0.33852901  0.49064241  0.33213686  1  1.513346  0  0.262211  0.653802  0  4.084842  0
C  C20  1  0.62310120  0.51691945  0.75483308  1  -0.06933  0  -0.042351  -0.211199  0  4.00766  0
C  C21  1  0.38603320  0.49211412  0.23396127  1  0.013945  0  -0.040555  -0.210837  0  3.999691  0
C  C22  1  0.78643973  0.50185903  0.80424329  1  0.470321  0  0.092837  0.322754  0  4.065109  0
C  C23  1  0.73713331  0.49677032  0.89804071  1  0.156708  0  -0.104977  -0.259098  0  3.928569  0
C  C24  1  0.24265237  0.47104355  0.18564987  1  0.513084  0  0.095283  0.325328  0  4.058767  0
C  C25  1  0.29337298  0.47602921  0.09181098  1  0.007015  0  -0.102958  -0.254428  0  3.923864  0
C  C26  1  0.57586697  0.51763042  0.18525355  1  -0.139597  0  -0.080537  -0.047888  0  4.005524  0
C  C27  1  0.62274305  0.52425441  0.09257363  1  0.079304  0  -0.103489  -0.165513  0  3.998442  0
C  C28  1  0.41365966  0.53233211  0.80212499  1  0.04242  0  -0.084567  -0.057746  0  4.016697  0
C  C29  1  0.36584707  0.53123502  0.89457221  1  -0.049422  0  -0.104684  -0.164697  0  3.998373  0
C  C30  1  0.52857629  0.51082550  0.94463878  1  -0.044824  0  0.003166  0.105315  0  4.001151  0
C  C31  1  0.48095928  0.50362526  0.04389259  1  -0.070585  0  0.002171  0.102804  0  4.002811  0
C  C32  1  0.93237108  0.13512018  0.48888191  1  0.047598  0  -0.01148  -0.171039  0  3.984117  0
C  C33  1  0.08305391  0.86355764  0.48398162  1  0.015968  0  -0.012085  -0.17276  0  3.987412  0
C  C34  1  0.10695220  0.06183007  0.52546333  1  0.019201  0  -0.003023  0.070907  0  3.90417  0
C  C35  1  0.91092664  0.93701824  0.44423950  1  0.562481  0  0.099467  0.152119  0  4.054185  0
C  C36  1  0.17872833  0.93194681  0.52349243  1  0.019194  0  -0.002071  0.070531  0  3.898939  0
C  C37  1  0.83797353  0.06763507  0.44670997  1  0.479279  0  0.10108  0.154266  0  4.055362  0
C  C38  1  0.27283901  0.06755667  0.57679504  1  -0.020124  0  -0.149616  -0.199694  0  3.864643  0
C  C39  1  0.35340753  0.91974959  0.57523259  1  -0.013762  0  -0.146525  -0.190343  0  3.848705  0
O  O40  1  0.66345495  0.32748348  0.49153440  1  -1.25413  0  -0.230766  -0.59086  0  2.339759  0
O  O41  1  0.86148782  0.51345183  0.61650876  1  -1.266808  0  -0.243631  -0.618373  0  2.394431  0
O  O42  1  0.02004299  0.66668976  0.48080489  1  -1.258193  0  -0.232956  -0.599077  0  2.364268  0
O  O43  1  0.47402218  0.50747507  0.37240356  1  -1.265145  0  -0.23678  -0.590469  0  2.350341  0
O  O44  1  0.34426418  0.67352626  0.49795682  1  -1.251421  0  -0.225033  -0.573829  0  2.311896  0
O  O45  1  0.15475687  0.47465041  0.37284108  1  -1.261802  0  -0.242775  -0.618142  0  2.383781  0
O  O46  1  0.99437403  0.32528457  0.50591238  1  -1.249742  0  -0.229147  -0.586235  0  2.325527  0
O  O47  1  0.52841643  0.50122341  0.61781242  1  -1.263221  0  -0.235405  -0.582403  0  2.343778  0
O  O48  1  0.26053191  0.44276054  0.53843711  1  -1.423019  0  -0.447973  -0.984424  0  2.175722  0
O  O49  1  0.75251692  0.55277736  0.45187206  1  -1.438918  0  -0.448362  -0.99292  0  2.179233  0
O  O50  1  0.99169589  0.48834670  0.76447470  1  -1.163094  0  -0.345335  -0.439817  0  2.303195  0
O  O51  1  0.05712372  0.44532538  0.22654650  1  -1.17174  0  -0.345441  -0.438744  0  2.281206  0
F  F52  1  0.80886896  0.88431727  0.39962402  1  -0.629652  0  -0.086113  -0.112532  0  1.386672  0
F  F53  1  0.67388456  0.12714046  0.40445460  1  -0.617693  0  -0.081362  -0.103092  0  1.384414  0
