# generated using pymatgen
data_Al3H34C42O17
_symmetry_space_group_name_H-M   'P 1'
_cell_length_a   12.66402213
_cell_length_b   12.55602246
_cell_length_c   28.48993836
_cell_angle_alpha   90.38462447
_cell_angle_beta   89.83928167
_cell_angle_gamma   59.99404723
_symmetry_Int_Tables_number   1
_chemical_formula_structural   Al3H34C42O17
_chemical_formula_sum   'Al6 H68 C84 O34'
_cell_volume   3922.82604876
_cell_formula_units_Z   2
loop_
 _symmetry_equiv_pos_site_id
 _symmetry_equiv_pos_as_xyz
  1  'x, y, z'
loop_
 _atom_site_type_symbol
 _atom_site_label
 _atom_site_symmetry_multiplicity
 _atom_site_fract_x
 _atom_site_fract_y
 _atom_site_fract_z
 _atom_site_occupancy
 _atom_site_pbe_bader_charge
 _atom_site_pbe_bader_spin_density
 _atom_site_pbe_cm5_charge
 _atom_site_pbe_ddec_charge
 _atom_site_pbe_ddec_spin_density
 _atom_site_pbe_ddec_sum_bond_order
 _atom_site_pbe_magmom
Al  Al0  1  0.40595018  0.18480637  0.50101270  1  2.493995  0  0.396684  1.684297  0  2.557287  0
Al  Al1  1  0.65701906  0.92537104  0.49963621  1  2.480815  0  0.507191  1.661131  0  2.510105  0
Al  Al2  1  0.42293768  0.92075470  0.49929174  1  2.480164  0  0.506906  1.6607  0  2.510328  0
Al  Al3  1  0.92314244  0.14623815  0.99985720  1  2.491651  0  0.396981  1.683558  0  2.556822  0
Al  Al4  1  0.91874391  0.40445533  0.99994267  1  2.483911  0  0.508284  1.660947  0  2.50873  0
Al  Al5  1  0.67858523  0.41104826  0.00066864  1  2.476761  0  0.507772  1.66116  0  2.510548  0
H  H6  1  0.74883560  0.78002903  0.78552729  1  0.058996  0  0.10024  0.086231  0  0.997543  0
H  H7  1  0.06691024  0.06694986  0.70478112  1  0.043708  0  0.095106  0.094788  0  0.996193  0
H  H8  1  0.04368653  0.08454594  0.78615773  1  0.050953  0  0.099165  0.100907  0  0.980286  0
H  H9  1  0.95427055  0.24589108  0.78143955  1  0.019193  0  0.087774  0.076979  0  1.021388  0
H  H10  1  0.24929630  0.27779074  0.70953290  1  0.045624  0  0.095473  0.094008  0  0.986816  0
H  H11  1  0.09042875  0.35449625  0.70115286  1  0.04123  0  0.096081  0.095938  0  0.980209  0
H  H12  1  0.36786651  0.05483901  0.71799607  1  0.077002  0  0.097569  0.03804  0  1.013641  0
H  H13  1  0.34369806  0.06731401  0.79861749  1  0.04334  0  0.097897  0.104363  0  0.977672  0
H  H14  1  0.05816488  0.37533939  0.78272876  1  0.021451  0  0.093968  0.093277  0  0.985579  0
H  H15  1  0.47510552  0.24909817  0.79405134  1  0.054386  0  0.100725  0.111006  0  0.973984  0
H  H16  1  0.87775828  0.59990584  0.71469630  1  0.071479  0  0.104682  0.095689  0  0.987439  0
H  H17  1  0.47402642  0.21169986  0.71369710  1  0.065745  0  0.111857  0.057308  0  0.950877  0
H  H18  1  0.71118224  0.29642871  0.69594862  1  0.05023  0  0.096536  0.095626  0  0.985548  0
H  H19  1  0.55357667  0.35186861  0.70265615  1  0.037878  0  0.098283  0.096239  0  0.977487  0
H  H20  1  0.57320592  0.38240866  0.78285781  1  0.052197  0  0.098575  0.101473  0  0.970659  0
H  H21  1  0.73307491  0.31111753  0.77711265  1  0.035691  0  0.092023  0.087879  0  1.00688  0
H  H22  1  0.80856381  0.96396283  0.71481909  1  0.023629  0  0.094247  0.087979  0  0.990059  0
H  H23  1  0.86082468  0.06852577  0.70837201  1  0.049713  0  0.098555  0.104246  0  0.978651  0
H  H24  1  0.79812554  0.99024114  0.79722915  1  0.030724  0  0.094347  0.091867  0  0.981602  0
H  H25  1  0.56766110  0.08917912  0.80221093  1  0.047941  0  0.101395  0.107968  0  0.984194  0
H  H26  1  0.53031167  0.86614724  0.73195736  1  0.098476  0  0.103953  0.10335  0  1.046493  0
H  H27  1  0.86619899  0.08161520  0.79048724  1  0.02941  0  0.097983  0.100893  0  0.995683  0
H  H28  1  0.48557202  0.74415386  0.20218928  1  0.058312  0  0.099631  0.101673  0  0.971267  0
H  H29  1  0.47032494  0.76087363  0.28354956  1  0.056779  0  0.097385  0.108635  0  0.987767  0
H  H30  1  0.77885994  0.48079117  0.29797639  1  0.05937  0  0.091746  0.091053  0  1.004881  0
H  H31  1  0.62060205  0.53183996  0.29814956  1  0.072065  0  0.095136  0.102629  0  0.995201  0
H  H32  1  0.61964020  0.51844212  0.21641961  1  0.029125  0  0.096003  0.094878  0  0.987699  0
H  H33  1  0.78000173  0.45147316  0.21702621  1  0.023886  0  0.090672  0.082536  0  1.030634  0
H  H34  1  0.74513319  0.79201165  0.28321189  1  0.051396  0  0.094932  0.028492  0  1.014837  0
H  H35  1  0.78178922  0.74784556  0.20380089  1  0.046129  0  0.099218  0.106137  0  0.975872  0
H  H36  1  0.47809419  0.70353162  0.77989852  1  0.081225  0  0.108823  0.104576  0  0.978407  0
H  H37  1  0.52389439  0.86631498  0.28119550  1  0.031525  0  0.09078  0.092058  0  1.030827  0
H  H38  1  0.54920594  0.84144424  0.20049141  1  0.019899  0  0.094514  0.093712  0  0.981183  0
H  H39  1  0.26481137  0.25529054  0.20725097  1  0.017365  0  0.095686  0.094499  0  0.979875  0
H  H40  1  0.29937580  0.22503509  0.28814764  1  0.036493  0  0.093837  0.092925  0  0.987  0
H  H41  1  0.06760930  0.35429787  0.30094981  1  0.056034  0  0.098803  0.108103  0  0.977254  0
H  H42  1  0.03767864  0.37678190  0.22011452  1  0.033383  0  0.097985  0.099731  0  0.982333  0
H  H43  1  0.95272393  0.30028496  0.22235623  1  0.037069  0  0.090651  0.085839  0  1.01834  0
H  H44  1  0.60822680  0.52154761  0.70982607  1  0.05712  0  0.104188  0.098023  0  1.005485  0
H  H45  1  0.07135501  0.06227420  0.29170997  1  0.024195  0  0.094019  0.024571  0  0.979332  0
H  H46  1  0.22299212  0.98146965  0.20613666  1  0.063129  0  0.107877  0.125464  0  0.958705  0
H  H47  1  0.36867156  0.06477173  0.27957565  1  0.058474  0  0.092098  0.094534  0  1.021691  0
H  H48  1  0.06209789  0.06392931  0.21010049  1  0.043845  0  0.096529  0.100122  0  0.995851  0
H  H49  1  0.75747414  0.99200946  0.19978944  1  0.026544  0  0.102896  0.111048  0  0.971815  0
H  H50  1  0.77852022  0.97110780  0.28074566  1  0.04661  0  0.101121  0.03734  0  0.960114  0
H  H51  1  0.85754187  0.11218335  0.29634865  1  0.026297  0  0.093535  0.088832  0  0.996171  0
H  H52  1  0.85970541  0.11913626  0.21394084  1  0.04552  0  0.095885  0.095015  0  0.990024  0
H  H53  1  0.82526895  0.43519359  0.76296209  1  0.047086  0  0.097386  0.083169  0  1.031212  0
H  H54  1  0.77167779  0.28086731  0.21830932  1  0.054084  0  0.094514  0.092452  0  1.018148  0
H  H55  1  0.46763549  0.29805249  0.21093507  1  0.070769  0  0.101563  0.109918  0  0.97384  0
H  H56  1  0.59670855  0.06324751  0.20512495  1  0.050607  0  0.106642  0.122959  0  0.964665  0
H  H57  1  0.54058994  0.38392797  0.22311735  1  0.053944  0  0.105424  0.120591  0  0.975996  0
H  H58  1  0.26789599  0.98107973  0.79521016  1  0.077932  0  0.107802  0.123374  0  0.961159  0
H  H59  1  0.98007669  0.22876963  0.69934923  1  0.020401  0  0.09149  0.089116  0  0.983846  0
H  H60  1  0.21688683  0.30420511  0.79094364  1  0.021467  0  0.095335  0.095991  0  0.978913  0
H  H61  1  0.64052840  0.96306247  0.73412577  1  0.571987  0  0.311663  0.33193  0  0.942928  0
H  H62  1  0.87677638  0.63388528  0.33081553  1  0.567877  0  0.316078  0.343548  0  0.915599  0
H  H63  1  0.87426985  0.58926696  0.21577965  1  0.05398  0  0.104412  0.118334  0  0.977616  0
H  H64  1  0.98105650  0.27979170  0.30345260  1  0.031444  0  0.092024  0.087656  0  0.994796  0
H  H65  1  0.26406665  0.92587299  0.32048223  1  0.584673  0  0.314272  0.340512  0  0.920931  0
H  H66  1  0.34003582  0.09395993  0.19910507  1  0.020648  0  0.095922  0.09588  0  0.981063  0
H  H67  1  0.75527032  0.27256090  0.29976648  1  0.051379  0  0.097911  0.102139  0  0.992069  0
H  H68  1  0.47114817  0.25188426  0.28988300  1  0.034169  0  0.100155  0.03509  0  0.991317  0
H  H69  1  0.50502568  0.37648452  0.33859809  1  0.602807  0  0.320961  0.351822  0  0.902359  0
H  H70  1  0.59930892  0.00771477  0.31921300  1  0.562924  0  0.314177  0.339109  0  0.921581  0
H  H71  1  0.31557167  0.92340496  0.68062719  1  0.565971  0  0.31694  0.346228  0  0.91221  0
H  H72  1  0.30869266  0.38596170  0.47215617  1  0.582015  0  0.291694  0.38142  0  0.925061  0
H  H73  1  0.03044034  0.94517529  0.02831866  1  0.572991  0  0.292813  0.383364  0  0.922231  0
C  C74  1  0.61592807  0.10297460  0.56693016  1  1.63115  0  0.281026  0.720063  0  4.153799  0
C  C75  1  0.64101481  0.72418271  0.60965139  1  -0.11224  0  -0.045085  -0.215709  0  3.957671  0
C  C76  1  0.75960201  0.53140623  0.75555611  1  -0.002798  0  -0.067364  -0.072624  0  3.622073  0
C  C77  1  0.68741971  0.63180199  0.79535645  1  0.13123  0  0.010047  0.116981  0  3.781937  0
C  C78  1  0.63919442  0.57890784  0.72707352  1  -0.002883  0  -0.067338  -0.076557  0  3.613936  0
C  C79  1  0.66883535  0.67051415  0.69971757  1  0.098001  0  0.008379  0.112322  0  3.780647  0
C  C80  1  0.56720899  0.67958863  0.76533023  1  -0.009906  0  -0.066594  -0.071997  0  3.617425  0
C  C81  1  0.59653712  0.77075832  0.73957524  1  -0.011845  0  -0.06873  -0.076386  0  3.601794  0
C  C82  1  0.69971330  0.61001723  0.84428599  1  -0.561088  0  -0.016017  -0.021271  0  4.052241  0
C  C83  1  0.65493449  0.69694792  0.65115794  1  -0.149031  0  -0.00902  -0.003553  0  4.037487  0
C  C84  1  0.28697266  0.04876755  0.72810744  1  0.441766  0  0.003022  0.189494  0  3.796208  0
C  C85  1  0.61481886  0.77795867  0.56389458  1  1.649409  0  0.283599  0.725513  0  4.147253  0
C  C86  1  0.05827159  0.15372722  0.71739040  1  -0.022683  0  -0.156537  -0.185023  0  3.86632  0
C  C87  1  0.04205246  0.16578930  0.77128196  1  -0.047797  0  -0.152105  -0.187502  0  3.844243  0
C  C88  1  0.10368674  0.20503296  0.88635335  1  0.209329  0  -0.046825  -0.214308  0  3.970737  0
C  C89  1  0.17476003  0.15629715  0.70322586  1  0.128622  0  -0.00531  0.096458  0  3.912755  0
C  C90  1  0.26832817  0.06257702  0.78165892  1  -0.044702  0  -0.151263  -0.252264  0  3.807507  0
C  C91  1  0.14599201  0.17901790  0.79420343  1  0.166086  0  0.002082  0.176893  0  3.901641  0
C  C92  1  0.14545315  0.29314455  0.77367598  1  -0.007203  0  -0.15452  -0.192584  0  3.854801  0
C  C93  1  0.16547206  0.27822074  0.71996642  1  -0.03713  0  -0.151805  -0.182462  0  3.860689  0
C  C94  1  0.12642603  0.19203699  0.84456839  1  -0.512201  0  -0.016385  -0.026341  0  4.014463  0
C  C95  1  0.19732456  0.13910600  0.65316437  1  -0.580374  0  -0.01279  -0.021594  0  4.040001  0
C  C96  1  0.27961121  0.09474824  0.56579445  1  1.657751  0  0.280541  0.71812  0  4.160507  0
C  C97  1  0.22576713  0.11907381  0.61191146  1  0.29102  0  -0.046298  -0.219054  0  3.970576  0
C  C98  1  0.56042050  0.14322423  0.72956428  1  0.463365  0  0.00874  0.198769  0  3.787131  0
C  C99  1  0.64387698  0.28383141  0.71586924  1  -0.029721  0  -0.152257  -0.192068  0  3.873486  0
C  C100  1  0.65430154  0.30004476  0.76918200  1  -0.05921  0  -0.15363  -0.191068  0  3.845836  0
C  C101  1  0.68118033  0.21611493  0.88760915  1  0.175479  0  -0.043773  -0.207685  0  3.969691  0
C  C102  1  0.66504885  0.15359034  0.70483971  1  0.118117  0  -0.004265  0.095568  0  3.909369  0
C  C103  1  0.56076241  0.16783955  0.78280325  1  -0.052917  0  -0.157201  -0.280351  0  3.849023  0
C  C104  1  0.66917919  0.18591021  0.79561219  1  0.137813  0  0.000709  0.179569  0  3.910079  0
C  C105  1  0.78914233  0.07129877  0.77903551  1  -0.030186  0  -0.155103  -0.193505  0  3.845603  0
C  C106  1  0.78930295  0.05653947  0.72514051  1  -0.02821  0  -0.155729  -0.187435  0  3.861833  0
C  C107  1  0.62286347  0.10137269  0.43410913  1  1.666056  0  0.275508  0.717096  0  4.164112  0
C  C108  1  0.67288662  0.20319275  0.84576752  1  -0.444968  0  -0.017529  -0.028615  0  4.016775  0
C  C109  1  0.65842156  0.13714544  0.65477740  1  -0.478744  0  -0.015064  -0.012905  0  4.02771  0
C  C110  1  0.64672589  0.12439727  0.61317026  1  0.262741  0  -0.04628  -0.213763  0  3.966183  0
C  C111  1  0.54498923  0.77351486  0.27083805  1  0.001122  0  -0.156545  -0.192477  0  3.842208  0
C  C112  1  0.69114560  0.54722442  0.28251246  1  -0.058681  0  -0.156231  -0.184144  0  3.837107  0
C  C113  1  0.69439167  0.53202635  0.22849631  1  -0.017184  0  -0.150861  -0.182147  0  3.827489  0
C  C114  1  0.70532493  0.60437044  0.11149550  1  0.283677  0  -0.048655  -0.229637  0  3.955121  0
C  C115  1  0.66467440  0.67833495  0.29506490  1  0.111021  0  -0.005657  0.091443  0  3.900249  0
C  C116  1  0.55755159  0.75862207  0.21688383  1  -0.024361  0  -0.149922  -0.181673  0  3.836793  0
C  C117  1  0.68335615  0.64713549  0.20389602  1  0.135585  0  0.003352  0.168767  0  3.901107  0
C  C118  1  0.61312039  0.77829656  0.43368087  1  1.647631  0  0.281863  0.730556  0  4.145203  0
C  C119  1  0.78458722  0.67049632  0.22266350  1  -0.028553  0  -0.152324  -0.252453  0  3.807363  0
C  C120  1  0.77044070  0.69585105  0.27589477  1  0.463269  0  0.001525  0.195997  0  3.806552  0
C  C121  1  0.69506835  0.62576732  0.15350303  1  -0.548064  0  -0.00051  0.006255  0  3.977252  0
C  C122  1  0.65248132  0.70093314  0.34538219  1  -0.589651  0  -0.000138  0.009668  0  4.002781  0
C  C123  1  0.64103876  0.72596580  0.38718740  1  0.29996  0  -0.055237  -0.24416  0  3.959782  0
C  C124  1  0.28662410  0.15253138  0.27210304  1  -0.021343  0  -0.155661  -0.180902  0  3.84412  0
C  C125  1  0.05909233  0.27836682  0.28582079  1  -0.024646  0  -0.152665  -0.185352  0  3.857289  0
C  C126  1  0.03984294  0.29286872  0.23218209  1  -0.043284  0  -0.152204  -0.186411  0  3.831929  0
C  C127  1  0.10018879  0.21015839  0.11398971  1  -0.388591  0  -0.049621  -0.219841  0  3.971631  0
C  C128  1  0.17551695  0.15500990  0.29631416  1  0.125876  0  -0.006094  0.091086  0  3.915503  0
C  C129  1  0.28278142  0.09601593  0.43298027  1  1.657341  0  0.275649  0.722169  0  4.156016  0
C  C130  1  0.26635708  0.17113528  0.21870259  1  -0.003114  0  -0.151774  -0.185879  0  3.848611  0
C  C131  1  0.14352826  0.18047943  0.20578865  1  0.159008  0  0.002763  0.174693  0  3.904044  0
C  C132  1  0.14498364  0.06247137  0.22222350  1  -0.042553  0  -0.152995  -0.254758  0  3.808616  0
C  C133  1  0.15642049  0.05054937  0.27590248  1  0.492665  0  0.004138  0.200332  0  3.821389  0
C  C134  1  0.12240039  0.19609790  0.15568236  1  0.089265  0  -0.014416  -0.021552  0  4.013753  0
C  C135  1  0.19955196  0.13734241  0.34614949  1  -0.429307  0  -0.013731  -0.020281  0  4.044642  0
C  C136  1  0.22838232  0.11791437  0.38723539  1  0.125952  0  -0.052259  -0.227958  0  3.973078  0
C  C137  1  0.68648170  0.04567726  0.27127563  1  0.469398  0  0.008865  0.197865  0  3.818373  0
C  C138  1  0.77130851  0.18703648  0.28274061  1  -0.018505  0  -0.155073  -0.177017  0  3.861907  0
C  C139  1  0.77527837  0.19527837  0.22877554  1  -0.058208  0  -0.15279  -0.192202  0  3.833911  0
C  C140  1  0.78922877  0.62269758  0.72966402  1  -0.022013  0  -0.069758  -0.080476  0  3.635271  0
C  C141  1  0.67939440  0.22006379  0.11458179  1  -0.10465  0  -0.046017  -0.20986  0  3.966347  0
C  C142  1  0.66666965  0.16436292  0.29711108  1  0.081606  0  -0.011313  0.025696  0  3.916918  0
C  C143  1  0.67726595  0.06565208  0.21793399  1  -0.000391  0  -0.151514  -0.261383  0  3.821263  0
C  C144  1  0.66547166  0.19137494  0.20646642  1  0.154154  0  0.004077  0.184277  0  3.904758  0
C  C145  1  0.54615370  0.29476449  0.22857584  1  -0.042303  0  -0.15274  -0.257999  0  3.815932  0
C  C146  1  0.54218000  0.27507433  0.28155277  1  0.482001  0  0.00358  0.200028  0  3.819791  0
C  C147  1  0.66903882  0.20691278  0.15621641  1  -0.20215  0  -0.017349  -0.027876  0  4.010304  0
C  C148  1  0.66334404  0.14618692  0.34710763  1  -0.099891  0  -0.021836  -0.04377  0  4.086484  0
C  C149  1  0.65221014  0.12721726  0.38814623  1  -0.195284  0  -0.045954  -0.214552  0  3.971445  0
C  C150  1  0.05360085  0.22625360  0.93311597  1  1.668698  0  0.279654  0.716615  0  4.161695  0
C  C151  1  0.71717608  0.72339464  0.76791094  1  -0.040344  0  -0.071647  -0.083122  0  3.633368  0
C  C152  1  0.73375487  0.54564235  0.93368260  1  1.654415  0  0.283744  0.722416  0  4.150642  0
C  C153  1  0.70908763  0.23672565  0.93453614  1  1.664708  0  0.280864  0.713916  0  4.164537  0
C  C154  1  0.05229571  0.23180152  0.06712775  1  1.665848  0  0.277856  0.723434  0  4.15383  0
C  C155  1  0.72791116  0.55463278  0.06465672  1  1.633859  0  0.286266  0.733275  0  4.139348  0
C  C156  1  0.71068696  0.23900999  0.06798599  1  1.685962  0  0.277717  0.719957  0  4.159752  0
C  C157  1  0.71079758  0.59055575  0.88640046  1  0.259494  0  -0.040625  -0.203119  0  3.95712  0
O  O158  1  0.30012664  0.17487240  0.54853505  1  -1.213592  0  -0.199272  -0.537216  0  2.286139  0
O  O159  1  0.68991340  0.80242061  0.45308495  1  -1.242503  0  -0.230471  -0.594507  0  2.245215  0
O  O160  1  0.51019627  0.80289461  0.45134334  1  -1.240565  0  -0.228395  -0.588197  0  2.241442  0
O  O161  1  0.30302591  0.99665176  0.45384468  1  -1.255502  0  -0.245131  -0.61001  0  2.230731  0
O  O162  1  0.49641566  0.00855602  0.49935300  1  -1.612891  0  -0.391215  -1.274189  0  2.293801  0
O  O163  1  0.80906355  0.15605973  0.95140802  1  -1.214689  0  -0.198705  -0.532411  0  2.283213  0
O  O164  1  0.02254996  0.15159349  0.94809548  1  -1.21605  0  -0.201352  -0.539863  0  2.291369  0
O  O165  1  0.03974391  0.32305865  0.95485722  1  -1.251594  0  -0.243737  -0.609074  0  2.232866  0
O  O166  1  0.83634337  0.52006800  0.95150239  1  -1.24683  0  -0.226519  -0.586549  0  2.24417  0
O  O167  1  0.65266704  0.52884075  0.95358579  1  -1.239782  0  -0.226395  -0.586935  0  2.245806  0
O  O168  1  0.63128771  0.33939652  0.95429188  1  -1.261145  0  -0.242181  -0.605423  0  2.234523  0
O  O169  1  0.51058206  0.17813313  0.55235121  1  -1.225154  0  -0.202478  -0.542676  0  2.287025  0
O  O170  1  0.81389123  0.15926710  0.05233735  1  -1.222097  0  -0.210407  -0.564576  0  2.300009  0
O  O171  1  0.03011716  0.15270798  0.04935930  1  -1.227762  0  -0.212739  -0.570722  0  2.291639  0
O  O172  1  0.03103259  0.33350544  0.04802593  1  -1.260371  0  -0.242397  -0.604415  0  2.229856  0
O  O173  1  0.82831521  0.53065828  0.04488459  1  -1.241559  0  -0.226221  -0.588826  0  2.243737  0
O  O174  1  0.64834445  0.53179392  0.04699822  1  -1.235002  0  -0.227647  -0.590918  0  2.242418  0
O  O175  1  0.63290757  0.33855153  0.04725871  1  -1.258768  0  -0.242399  -0.604885  0  2.231425  0
O  O176  1  0.83906621  0.32268502  0.00035981  1  -1.607779  0  -0.391175  -1.274426  0  2.294523  0
O  O177  1  0.69701809  0.00574722  0.54494187  1  -1.261904  0  -0.244528  -0.611973  0  2.232498  0
O  O178  1  0.69059771  0.80661912  0.54640794  1  -1.243699  0  -0.227499  -0.590631  0  2.243327  0
O  O179  1  0.51514248  0.79885542  0.54455956  1  -1.243179  0  -0.229008  -0.593422  0  2.248173  0
O  O180  1  0.30710381  0.99010088  0.54693111  1  -1.252554  0  -0.243457  -0.608797  0  2.233801  0
O  O181  1  0.31061310  0.17358503  0.44797784  1  -1.224207  0  -0.212717  -0.56639  0  2.294263  0
O  O182  1  0.52133667  0.17952715  0.45146756  1  -1.216167  0  -0.210811  -0.562832  0  2.291351  0
O  O183  1  0.70086707  0.99752460  0.45203366  1  -1.252516  0  -0.240418  -0.598092  0  2.232133  0
O  O184  1  0.56686130  0.02835717  0.71986435  1  -1.095978  0  -0.396869  -0.501801  0  2.264908  0
O  O185  1  0.88485768  0.61408306  0.29733401  1  -1.08696  0  -0.406743  -0.509672  0  2.190511  0
O  O186  1  0.25497624  0.93092907  0.28637771  1  -1.108693  0  -0.40098  -0.50204  0  2.220755  0
O  O187  1  0.51632899  0.38636403  0.30532805  1  -1.116098  0  -0.401978  -0.504211  0  2.186863  0
O  O188  1  0.59762693  0.01296430  0.28495865  1  -1.086991  0  -0.390359  -0.495599  0  2.257145  0
O  O189  1  0.30401951  0.93107457  0.71467338  1  -1.082751  0  -0.402523  -0.504836  0  2.192251  0
O  O190  1  0.32394776  0.34568654  0.50217085  1  -1.366819  0  -0.576279  -0.992475  0  1.796791  0
O  O191  1  0.99905656  0.98539299  0.99865781  1  -1.356628  0  -0.577006  -0.993952  0  1.793853  0
