# generated using pymatgen
data_Hf3H23C63N3O16F15
_symmetry_space_group_name_H-M   'P 1'
_cell_length_a   17.44739795
_cell_length_b   17.46632237
_cell_length_c   17.72961880
_cell_angle_alpha   92.47718783
_cell_angle_beta   92.42613486
_cell_angle_gamma   92.95697536
_symmetry_Int_Tables_number   1
_chemical_formula_structural   Hf3H23C63N3O16F15
_chemical_formula_sum   'Hf6 H46 C126 N6 O32 F30'
_cell_volume   5385.34213001
_cell_formula_units_Z   2
loop_
 _symmetry_equiv_pos_site_id
 _symmetry_equiv_pos_as_xyz
  1  'x, y, z'
loop_
 _atom_site_type_symbol
 _atom_site_label
 _atom_site_symmetry_multiplicity
 _atom_site_fract_x
 _atom_site_fract_y
 _atom_site_fract_z
 _atom_site_occupancy
 _atom_site_pbe_bader_charge
 _atom_site_pbe_bader_spin_density
 _atom_site_pbe_cm5_charge
 _atom_site_pbe_ddec_charge
 _atom_site_pbe_ddec_spin_density
 _atom_site_pbe_ddec_sum_bond_order
 _atom_site_pbe_magmom
Hf  Hf0  1  0.81169030  0.95168961  0.85069437  1  2.623616  0  1.510198  2.141468  0  3.349384  0
Hf  Hf1  1  0.75625480  0.84536787  0.00396687  1  2.625127  0  1.509084  2.145951  0  3.326072  0
Hf  Hf2  1  0.99697549  0.98145423  0.93227479  1  2.622752  0  1.509793  2.144896  0  3.334273  0
Hf  Hf3  1  0.91569626  0.79419157  0.90192270  1  2.620951  0  1.499787  2.141999  0  3.31851  0
Hf  Hf4  1  0.83851510  0.03165242  0.03549440  1  2.618986  0  1.50385  2.145373  0  3.325947  0
Hf  Hf5  1  0.94242270  0.87454327  0.08546151  1  2.619224  0  1.507149  2.141895  0  3.347082  0
H  H6  1  0.13787794  0.25915081  0.58967203  1  0.125296  0  0.115983  0.139855  0  0.986819  0
H  H7  1  0.14346907  0.23189174  0.44173568  1  0.074908  0  0.111966  0.130616  0  0.996879  0
H  H8  1  0.63047687  0.57033064  0.34388365  1  0.090889  0  0.115298  0.135582  0  0.986945  0
H  H9  1  0.61804541  0.59350333  0.49103468  1  0.051258  0  0.110616  0.127701  0  1.000927  0
H  H10  1  0.21262456  0.53944082  0.22053323  1  0.086619  0  0.114603  0.135137  0  0.987724  0
H  H11  1  0.19806539  0.38858963  0.23596471  1  0.11099  0  0.108414  0.132712  0  1.008708  0
H  H12  1  0.53471027  0.28695803  0.71242742  1  0.109782  0  0.114827  0.139257  0  0.987658  0
H  H13  1  0.56603531  0.43745881  0.71045314  1  0.066494  0  0.110275  0.129832  0  0.998257  0
H  H14  1  0.50401037  0.16653336  0.32677615  1  0.12592  0  0.114928  0.138008  0  0.989424  0
H  H15  1  0.35292050  0.17997607  0.30297917  1  0.083528  0  0.113407  0.132971  0  0.989886  0
H  H16  1  0.24946587  0.66312297  0.60920383  1  0.092305  0  0.115679  0.139541  0  0.987647  0
H  H17  1  0.40004261  0.64924692  0.63438419  1  0.088588  0  0.110983  0.128428  0  0.994167  0
H  H18  1  0.76060820  0.79560902  0.85070772  1  0.608771  0  0.331657  0.407898  0  0.877016  0
H  H19  1  0.88821189  0.09303325  0.90401082  1  0.59069  0  0.34084  0.423602  0  0.847919  0
H  H20  1  0.05653724  0.84843358  0.97886559  1  0.602465  0  0.339498  0.420982  0  0.851278  0
H  H21  1  0.80910272  0.92069710  0.14488003  1  0.611474  0  0.338831  0.420309  0  0.853785  0
H  H22  1  0.04393422  0.76102764  0.70549450  1  0.120359  0  0.117792  0.145142  0  0.993093  0
H  H23  1  0.29002698  0.91268845  0.69248631  1  0.116377  0  0.113605  0.138244  0  1.000521  0
H  H24  1  0.46133606  0.69684131  0.73711909  1  0.081572  0  0.109667  0.131484  0  1.000026  0
H  H25  1  0.60087394  0.94944785  0.73010546  1  0.134091  0  0.12397  0.150659  0  0.973764  0
H  H26  1  0.14570854  0.88460052  0.21161858  1  0.12293  0  0.120672  0.152421  0  0.986293  0
H  H27  1  0.29988282  0.12794190  0.19494798  1  0.085833  0  0.110666  0.132901  0  0.998066  0
H  H28  1  0.70482031  0.07156194  0.22057227  1  0.1364  0  0.118365  0.146734  0  0.989416  0
H  H29  1  0.46279111  0.91587530  0.24412660  1  0.130153  0  0.112446  0.136843  0  1.003682  0
H  H30  1  0.31189930  0.03473218  0.45067630  1  0.112639  0  0.114786  0.142917  0  0.992514  0
H  H31  1  0.44295081  0.79480518  0.48586568  1  0.121375  0  0.113987  0.140477  0  0.995545  0
H  H32  1  0.62319502  0.08140241  0.80475886  1  0.147497  0  0.119966  0.148611  0  0.986158  0
H  H33  1  0.58118471  0.31159798  0.96753551  1  0.114614  0  0.110366  0.13603  0  1.00523  0
H  H34  1  0.58460851  0.56093680  0.75021534  1  0.09593  0  0.110386  0.130391  0  0.993238  0
H  H35  1  0.68978601  0.57013855  0.01497069  1  0.138559  0  0.112829  0.14292  0  1.012043  0
H  H36  1  0.06073883  0.17306288  0.15640794  1  0.111823  0  0.107276  0.129948  0  1.033712  0
H  H37  1  0.17445059  0.34523399  0.97082166  1  0.100021  0  0.113393  0.140911  0  0.999813  0
H  H38  1  0.06023208  0.59836342  0.93886129  1  0.151773  0  0.125134  0.155658  0  0.9648  0
H  H39  1  0.24113238  0.65735390  0.15953539  1  0.093405  0  0.117684  0.144755  0  0.973136  0
H  H40  1  0.31794966  0.30367842  0.03890929  1  0.096502  0  0.115571  0.146962  0  1.002055  0
H  H41  1  0.43267379  0.51428592  0.89830396  1  0.11928  0  0.114768  0.145298  0  0.998799  0
H  H42  1  0.90921649  0.73203315  0.27420019  1  0.118774  0  0.124907  0.155882  0  0.966878  0
H  H43  1  0.69292206  0.53807458  0.22699660  1  0.098496  0  0.11663  0.141341  0  0.977276  0
H  H44  1  0.65559470  0.66630534  0.57707504  1  0.084136  0  0.109299  0.129877  0  1.003538  0
H  H45  1  0.92674086  0.69325623  0.66947082  1  0.142803  0  0.118982  0.143739  0  0.983106  0
H  H46  1  0.10647799  0.18555087  0.33589295  1  0.075195  0  0.111735  0.133679  0  1.001562  0
H  H47  1  0.82895996  0.12355644  0.28401449  1  0.138579  0  0.118788  0.143873  0  0.9814  0
H  H48  1  0.04637777  0.16735563  0.79464412  1  0.156032  0  0.119641  0.153014  0  0.990093  0
H  H49  1  0.88203437  0.19473456  0.56340017  1  0.113327  0  0.113112  0.138254  0  0.994184  0
H  H50  1  0.97028453  0.36940416  0.37423195  1  0.089822  0  0.114528  0.143116  0  0.997422  0
H  H51  1  0.79282242  0.45625156  0.56468412  1  0.126927  0  0.114632  0.1414  0  0.995973  0
C  C52  1  0.01638392  0.27893654  0.56561065  1  0.250179  0  0.078945  0.105799  0  3.898199  0
C  C53  1  0.09214403  0.26885429  0.54838150  1  0.020784  0  -0.091528  -0.160899  0  3.971877  0
C  C54  1  0.09454534  0.25405517  0.46959283  1  0.038018  0  -0.100217  -0.178263  0  3.979859  0
C  C55  1  0.02073146  0.25684561  0.43759910  1  0.238193  0  0.082575  0.118119  0  3.936155  0
C  C56  1  0.75065505  0.54780615  0.37253627  1  0.271477  0  0.078719  0.104965  0  3.916047  0
C  C57  1  0.67417876  0.55869082  0.38664182  1  -0.007432  0  -0.096797  -0.170634  0  3.988265  0
C  C58  1  0.66837096  0.57213025  0.46510149  1  0.036049  0  -0.102975  -0.180673  0  3.99982  0
C  C59  1  0.74110502  0.56964434  0.49993548  1  0.273553  0  0.079459  0.109379  0  3.91697  0
C  C60  1  0.24176267  0.50970280  0.10397688  1  0.304519  0  0.07877  0.101995  0  3.921045  0
C  C61  1  0.22870967  0.49616667  0.17924215  1  -0.013752  0  -0.098787  -0.172641  0  3.985954  0
C  C62  1  0.21991357  0.41622029  0.18713184  1  -0.00406  0  -0.102352  -0.178349  0  3.995715  0
C  C63  1  0.22705494  0.38010484  0.11657549  1  0.301766  0  0.077343  0.106235  0  3.932801  0
C  C64  1  0.50647269  0.31035207  0.83025892  1  0.298983  0  0.075206  0.094914  0  3.900209  0
C  C65  1  0.52221644  0.32858057  0.75678483  1  -0.012309  0  -0.093807  -0.161366  0  3.977009  0
C  C66  1  0.53869203  0.40851176  0.75595939  1  0.040639  0  -0.10497  -0.187009  0  3.994944  0
C  C67  1  0.53151699  0.44020580  0.82839928  1  0.258483  0  0.080733  0.114352  0  3.941306  0
C  C68  1  0.47343354  0.04389420  0.33428082  1  0.287412  0  0.081073  0.115114  0  3.898396  0
C  C69  1  0.45994000  0.12115578  0.33195748  1  -0.041316  0  -0.090069  -0.158268  0  3.952582  0
C  C70  1  0.37966627  0.12793006  0.31896693  1  -0.012655  0  -0.098493  -0.181143  0  3.984031  0
C  C71  1  0.34398766  0.05527599  0.31526632  1  0.244173  0  0.080604  0.116396  0  3.928981  0
C  C72  1  0.28061961  0.78564588  0.60132297  1  0.255869  0  0.082372  0.118401  0  3.902077  0
C  C73  1  0.29373993  0.70836493  0.60434379  1  0.00934  0  -0.092103  -0.163516  0  3.958423  0
C  C74  1  0.37382873  0.70144292  0.61805327  1  -0.012516  0  -0.100149  -0.180999  0  3.989811  0
C  C75  1  0.40991424  0.77401631  0.62158545  1  0.24363  0  0.078846  0.113311  0  3.930359  0
C  C76  1  0.93575617  0.05528515  0.77627959  1  1.56639  0  0.238932  0.646243  0  4.098854  0
C  C77  1  0.64496482  0.87415002  0.85178258  1  1.585332  0  0.239446  0.64127  0  4.09639  0
C  C78  1  0.84017208  0.79825221  0.73738401  1  1.583969  0  0.239476  0.642485  0  4.096784  0
C  C79  1  0.72995968  0.10280060  0.91645377  1  1.570178  0  0.242999  0.656585  0  4.080808  0
C  C80  1  0.82107203  0.76296697  0.15359639  1  1.568937  0  0.243221  0.65369  0  4.088167  0
C  C81  1  0.10626448  0.95688905  0.08736536  1  1.577132  0  0.242262  0.647777  0  4.083186  0
C  C82  1  0.76027560  0.67882809  0.92832052  1  1.607057  0  0.243531  0.649758  0  4.095499  0
C  C83  1  0.67980338  0.96714639  0.10633274  1  1.569695  0  0.238972  0.646298  0  4.10339  0
C  C84  1  0.99847036  0.14351571  0.01406737  1  1.616795  0  0.245509  0.656236  0  4.089353  0
C  C85  1  0.06877969  0.86217975  0.82320660  1  1.571969  0  0.244101  0.656848  0  4.084004  0
C  C86  1  0.01904244  0.71962975  0.02423126  1  1.566375  0  0.236414  0.64435  0  4.107486  0
C  C87  1  0.91812043  0.03395505  0.19723637  1  1.606423  0  0.240049  0.645809  0  4.10276  0
C  C88  1  0.09642052  0.79650205  0.70029048  1  0.132339  0  -0.088912  -0.194361  0  3.987594  0
C  C89  1  0.11641182  0.85455980  0.75619988  1  0.045276  0  -0.021819  -0.134735  0  3.979464  0
C  C90  1  0.18433231  0.89926075  0.74716206  1  0.445677  0  0.106371  0.280082  0  4.047452  0
C  C91  1  0.23403449  0.88227182  0.69079127  1  0.110789  0  -0.096333  -0.233784  0  3.985987  0
C  C92  1  0.21681885  0.82084920  0.63761460  1  0.041092  0  -0.004289  -0.01673  0  4.027187  0
C  C93  1  0.14426796  0.78226984  0.64192316  1  0.359152  0  0.091985  0.22817  0  4.049722  0
C  C94  1  0.49288902  0.75167488  0.73267420  1  0.039365  0  -0.100915  -0.244214  0  3.981448  0
C  C95  1  0.47663620  0.79845029  0.67141565  1  0.105839  0  -0.007818  -0.022671  0  4.03206  0
C  C96  1  0.51715801  0.87033213  0.67435165  1  0.403367  0  0.092932  0.229415  0  4.045767  0
C  C97  1  0.56906011  0.89443373  0.73261444  1  0.076644  0  -0.081611  -0.177663  0  3.971811  0
C  C98  1  0.58269487  0.84856375  0.79448061  1  0.050718  0  -0.020805  -0.131749  0  3.975229  0
C  C99  1  0.54276959  0.77691540  0.79242927  1  0.420329  0  0.101711  0.271698  0  4.068973  0
C  C100  1  0.18039391  0.93768099  0.20745671  1  0.101157  0  -0.084071  -0.18529  0  3.973404  0
C  C101  1  0.16963732  0.98162915  0.14360678  1  0.03291  0  -0.020687  -0.128811  0  3.969015  0
C  C102  1  0.21432687  0.05034558  0.14219717  1  0.477665  0  0.103086  0.275027  0  4.059788  0
C  C103  1  0.26520529  0.07527718  0.20124725  1  0.028279  0  -0.098849  -0.24111  0  3.979705  0
C  C104  1  0.27746496  0.03089589  0.26509004  1  0.053506  0  -0.007848  -0.02365  0  4.035044  0
C  C105  1  0.23324590  0.96134793  0.26498585  1  0.455315  0  0.090716  0.229089  0  4.051775  0
C  C106  1  0.65345720  0.03507438  0.22820879  1  0.045273  0  -0.091879  -0.201493  0  3.995103  0
C  C107  1  0.63250720  0.97606762  0.17346080  1  0.064645  0  -0.025515  -0.141362  0  3.991619  0
C  C108  1  0.56589631  0.93047563  0.18537757  1  0.459627  0  0.106011  0.281354  0  4.049363  0
C  C109  1  0.51817720  0.94715985  0.24352989  1  0.05789  0  -0.097349  -0.235265  0  3.986638  0
C  C110  1  0.53622708  0.00927732  0.29576404  1  -0.01034  0  -0.003739  -0.014416  0  4.025192  0
C  C111  1  0.60782045  0.04891144  0.28840936  1  0.434091  0  0.091623  0.229127  0  4.047406  0
C  C112  1  0.34094090  0.98155431  0.45703194  1  0.067944  0  -0.097496  -0.260767  0  4.008222  0
C  C113  1  0.38813238  0.95575153  0.40018201  1  0.362704  0  0.085066  0.088454  0  4.017542  0
C  C114  1  0.42422064  0.88759740  0.41415211  1  0.466011  0  0.093218  0.214593  0  4.049793  0
C  C115  1  0.41376777  0.84789181  0.47943053  1  0.05351  0  -0.09983  -0.262916  0  4.010403  0
C  C116  1  0.36640389  0.87362551  0.53616788  1  0.358483  0  0.085573  0.089754  0  4.015412  0
C  C117  1  0.33044868  0.94187507  0.52230253  1  0.478198  0  0.094641  0.216454  0  4.046731  0
C  C118  1  0.61172012  0.13037026  0.84186987  1  -0.00124  0  -0.08774  -0.189417  0  3.987402  0
C  C119  1  0.66083284  0.14765844  0.90608388  1  0.064915  0  -0.025489  -0.143896  0  3.986529  0
C  C120  1  0.64313327  0.21056908  0.95302210  1  0.454061  0  0.104934  0.283385  0  4.048232  0
C  C121  1  0.58597285  0.25902194  0.93317884  1  0.037623  0  -0.101082  -0.248091  0  3.97879  0
C  C122  1  0.54146086  0.24578022  0.86519520  1  0.090407  0  -0.001034  -0.002102  0  4.043431  0
C  C123  1  0.55287294  0.17686672  0.82392992  1  0.413548  0  0.091156  0.225138  0  4.046813  0
C  C124  1  0.60746123  0.56062400  0.80829988  1  0.021926  0  -0.100382  -0.239166  0  4.007975  0
C  C125  1  0.57662669  0.50802917  0.85888034  1  0.065652  0  -0.012565  -0.038004  0  4.051463  0
C  C126  1  0.60852851  0.51540388  0.93348696  1  0.430662  0  0.096071  0.2379  0  4.019551  0
C  C127  1  0.66903146  0.56690695  0.95612921  1  0.059593  0  -0.086573  -0.191319  0  3.970005  0
C  C128  1  0.70240852  0.61462000  0.90390532  1  0.058158  0  -0.01371  -0.103613  0  3.962764  0
C  C129  1  0.66892921  0.61048552  0.83089899  1  0.42577  0  0.095096  0.254289  0  4.081243  0
C  C130  1  0.08566757  0.21019845  0.11534575  1  0.089279  0  -0.092168  -0.198688  0  4.004864  0
C  C131  1  0.05698789  0.20579248  0.04041920  1  0.01639  0  -0.014965  -0.111045  0  3.968757  0
C  C132  1  0.09399474  0.25280624  0.98977652  1  0.408789  0  0.102442  0.271479  0  4.052662  0
C  C133  1  0.15343157  0.30550381  0.01183311  1  0.090565  0  -0.097373  -0.236741  0  3.967298  0
C  C134  1  0.18201032  0.31158083  0.08778117  1  0.02175  0  -0.011547  -0.034109  0  4.05206  0
C  C135  1  0.14805185  0.25951012  0.13661052  1  0.434525  0  0.091507  0.232745  0  4.024205  0
C  C136  1  0.10046681  0.61188435  0.98682632  1  0.021025  0  -0.084774  -0.185865  0  3.98137  0
C  C137  1  0.08884485  0.67562852  0.03525575  1  0.069312  0  -0.028407  -0.147586  0  3.996637  0
C  C138  1  0.14423729  0.69190426  0.09460856  1  0.4449  0  0.104108  0.277045  0  4.058545  0
C  C139  1  0.20248195  0.64352426  0.11043411  1  0.075046  0  -0.100355  -0.253396  0  3.991797  0
C  C140  1  0.20778627  0.57403846  0.06809219  1  -0.003372  0  -0.000552  -0.002214  0  4.049739  0
C  C141  1  0.15889154  0.56380490  0.00236992  1  0.453089  0  0.094438  0.229025  0  4.030032  0
C  C142  1  0.34099385  0.35143810  0.00796732  1  0.078552  0  -0.103938  -0.274439  0  4.013493  0
C  C143  1  0.31012927  0.42395577  0.01505589  1  0.361008  0  0.088381  0.088341  0  4.018198  0
C  C144  1  0.34722585  0.48052255  0.97329870  1  0.460015  0  0.091418  0.209955  0  4.051113  0
C  C145  1  0.40916849  0.46651076  0.92899072  1  0.0777  0  -0.10452  -0.274351  0  4.01313  0
C  C146  1  0.44031968  0.39413365  0.92235234  1  0.360517  0  0.08883  0.092135  0  4.020148  0
C  C147  1  0.40267011  0.33738016  0.96347241  1  0.494623  0  0.091986  0.210043  0  4.048979  0
C  C148  1  0.86239177  0.68879103  0.26326553  1  0.072872  0  -0.085291  -0.187923  0  3.98159  0
C  C149  1  0.81264661  0.69434520  0.19963967  1  0.032048  0  -0.023711  -0.138202  0  3.988652  0
C  C150  1  0.75432979  0.63607656  0.18728827  1  0.455206  0  0.105659  0.275571  0  4.055957  0
C  C151  1  0.74139832  0.57944001  0.23808671  1  0.047135  0  -0.101445  -0.25447  0  3.997759  0
C  C152  1  0.78517739  0.57969826  0.30668600  1  0.054786  0  -0.001435  -0.005735  0  4.043379  0
C  C153  1  0.84922314  0.63299071  0.31456996  1  0.450509  0  0.095826  0.234626  0  4.037778  0
C  C154  1  0.71581378  0.67014607  0.59590354  1  0.038137  0  -0.101886  -0.243874  0  3.989875  0
C  C155  1  0.76788165  0.61835006  0.56608199  1  0.048145  0  -0.008225  -0.024948  0  4.026139  0
C  C156  1  0.84442757  0.63126570  0.59447021  1  0.422648  0  0.094381  0.230371  0  4.036467  0
C  C157  1  0.86734585  0.68920248  0.64766520  1  0.050733  0  -0.085125  -0.186443  0  3.98034  0
C  C158  1  0.81571142  0.74208498  0.67375637  1  0.069209  0  -0.01963  -0.123129  0  3.976351  0
C  C159  1  0.73975439  0.73071177  0.64538302  1  0.445118  0  0.098703  0.268842  0  4.085174  0
C  C160  1  0.04502858  0.17268517  0.32714210  1  0.076665  0  -0.098464  -0.239827  0  3.993249  0
C  C161  1  0.99179226  0.21283707  0.36961223  1  0.045147  0  -0.008826  -0.029174  0  4.035678  0
C  C162  1  0.91385813  0.19177232  0.35091743  1  0.435027  0  0.094802  0.232261  0  4.028882  0
C  C163  1  0.89021669  0.13510291  0.29653240  1  -0.016498  0  -0.085863  -0.190826  0  3.981274  0
C  C164  1  0.94384331  0.09201882  0.25920936  1  0.071107  0  -0.017223  -0.115114  0  3.975026  0
C  C165  1  0.02115298  0.11275660  0.27696048  1  0.441137  0  0.097424  0.255712  0  4.080057  0
C  C166  1  0.00906400  0.17489161  0.74501720  1  0.059865  0  -0.087419  -0.191796  0  3.980906  0
C  C167  1  0.94644536  0.12194318  0.72813719  1  0.048098  0  -0.027452  -0.146387  0  3.991891  0
C  C168  1  0.89885413  0.13516464  0.66456513  1  0.416611  0  0.104572  0.281236  0  4.04925  0
C  C169  1  0.91640326  0.19264316  0.61585206  1  0.076758  0  -0.099563  -0.241662  0  3.985561  0
C  C170  1  0.98240994  0.24211121  0.62943494  1  0.113619  0  -0.002484  -0.009664  0  4.041284  0
C  C171  1  0.02446580  0.23403587  0.69799164  1  0.361278  0  0.091687  0.228455  0  4.041422  0
C  C172  1  0.93119750  0.38679380  0.41722888  1  0.091256  0  -0.103981  -0.272417  0  4.018144  0
C  C173  1  0.92525002  0.34587655  0.48324633  1  0.398609  0  0.087625  0.093416  0  4.024131  0
C  C174  1  0.87393654  0.37494730  0.53487759  1  0.455584  0  0.091863  0.210402  0  4.046194  0
C  C175  1  0.83224012  0.43894903  0.52195531  1  0.069502  0  -0.102083  -0.267285  0  4.02279  0
C  C176  1  0.83876909  0.48038000  0.45625668  1  0.377056  0  0.088901  0.092762  0  4.017603  0
C  C177  1  0.88936733  0.45071959  0.40419531  1  0.44671  0  0.092377  0.213194  0  4.045577  0
N  N178  1  0.97298334  0.28278684  0.49560797  1  -1.114145  0  -0.229293  -0.089438  0  3.553262  0
N  N179  1  0.79082244  0.54314803  0.44367938  1  -1.0866  0  -0.221798  -0.072307  0  3.559607  0
N  N180  1  0.25114827  0.43735517  0.06668798  1  -1.130108  0  -0.224478  -0.068623  0  3.594615  0
N  N181  1  0.50126592  0.38113043  0.87286551  1  -1.135871  0  -0.225158  -0.073052  0  3.583749  0
N  N182  1  0.40037381  0.00207767  0.33560130  1  -1.045069  0  -0.237002  -0.110624  0  3.489846  0
N  N183  1  0.35377588  0.82719263  0.60063019  1  -1.060621  0  -0.236217  -0.10983  0  3.493133  0
O  O184  1  0.99139972  0.04076531  0.82120322  1  -1.176658  0  -0.324156  -0.562135  0  2.283782  0
O  O185  1  0.64946235  0.84763955  0.91711419  1  -1.158889  0  -0.307416  -0.552544  0  2.218212  0
O  O186  1  0.81413484  0.86436784  0.74314494  1  -1.162531  0  -0.304788  -0.549655  0  2.209499  0
O  O187  1  0.74668118  0.05926666  0.86072393  1  -1.174391  0  -0.330985  -0.572937  0  2.303152  0
O  O188  1  0.76895508  0.11141218  0.97970905  1  -1.172787  0  -0.361122  -0.595512  0  2.30987  0
O  O189  1  0.88671951  0.76934208  0.78536503  1  -1.178633  0  -0.363035  -0.594059  0  2.346829  0
O  O190  1  0.69407799  0.92226132  0.82527749  1  -1.173371  0  -0.364715  -0.592904  0  2.370674  0
O  O191  1  0.87025416  0.01771763  0.77090127  1  -1.166773  0  -0.361619  -0.591668  0  2.32516  0
O  O192  1  0.78438434  0.94997714  0.96268496  1  -1.199324  0  -0.765094  -1.059825  0  2.246291  0
O  O193  1  0.91550147  0.90799493  0.87714257  1  -1.197781  0  -0.765376  -1.059062  0  2.247006  0
O  O194  1  0.79388845  0.82900297  0.88448238  1  -1.235327  0  -0.658237  -0.990692  0  2.429854  0
O  O195  1  0.88579266  0.04095106  0.92100109  1  -1.215422  0  -0.660951  -0.997981  0  2.424912  0
O  O196  1  0.76549422  0.77833088  0.10937023  1  -1.164277  0  -0.32651  -0.568739  0  2.316389  0
O  O197  1  0.10117835  0.98395007  0.02226075  1  -1.164726  0  -0.310603  -0.558939  0  2.223508  0
O  O198  1  0.82695984  0.68372341  0.90311508  1  -1.165786  0  -0.304867  -0.557436  0  2.185897  0
O  O199  1  0.72461725  0.02385751  0.09191791  1  -1.174993  0  -0.325498  -0.564698  0  2.293606  0
O  O200  1  0.93343790  0.13697367  0.04267376  1  -1.172504  0  -0.305743  -0.554704  0  2.183905  0
O  O201  1  0.02410090  0.80493207  0.83680570  1  -1.180623  0  -0.330145  -0.574861  0  2.288969  0
O  O202  1  0.99936447  0.76213278  0.07919985  1  -1.166601  0  -0.329473  -0.570644  0  2.321153  0
O  O203  1  0.94620191  0.96888376  0.19197769  1  -1.167946  0  -0.303088  -0.555088  0  2.193692  0
O  O204  1  0.98327465  0.71179827  0.95896756  1  -1.178111  0  -0.355613  -0.590824  0  2.259814  0
O  O205  1  0.86643771  0.05948690  0.15230197  1  -1.177612  0  -0.36357  -0.597496  0  2.327866  0
O  O206  1  0.73076722  0.72733297  0.97317777  1  -1.163458  0  -0.350647  -0.572348  0  2.342106  0
O  O207  1  0.07665102  0.92541840  0.86296851  1  -1.172918  0  -0.356837  -0.589197  0  2.325636  0
O  O208  1  0.02458474  0.09873989  0.96313893  1  -1.168727  0  -0.359231  -0.58913  0  2.343572  0
O  O209  1  0.67416233  0.90223853  0.06907503  1  -1.165698  0  -0.356355  -0.585437  0  2.311258  0
O  O210  1  0.88466813  0.80375406  0.16447454  1  -1.183785  0  -0.360042  -0.595618  0  2.281043  0
O  O211  1  0.05824808  0.90732540  0.11340744  1  -1.177994  0  -0.369507  -0.597743  0  2.387848  0
O  O212  1  0.93977752  0.97640545  0.03172645  1  -1.202746  0  -0.760096  -1.064854  0  2.221394  0
O  O213  1  0.87041646  0.81940785  0.00408564  1  -1.200398  0  -0.7637  -1.059376  0  2.239084  0
O  O214  1  0.00389288  0.86379132  0.97614089  1  -1.229221  0  -0.661144  -0.995476  0  2.432373  0
O  O215  1  0.82615735  0.91958440  0.09350732  1  -1.237397  0  -0.661915  -0.998646  0  2.430853  0
F  F216  1  0.12372380  0.72351501  0.59039635  1  -0.636323  0  -0.106982  -0.15128  0  1.318901  0
F  F217  1  0.20789834  0.95685323  0.79780096  1  -0.629448  0  -0.095796  -0.128624  0  1.341322  0
F  F218  1  0.55181601  0.72924844  0.85024445  1  -0.631316  0  -0.093726  -0.131005  0  1.374415  0
F  F219  1  0.50493147  0.91934339  0.61768277  1  -0.637705  0  -0.1021  -0.140407  0  1.35757  0
F  F220  1  0.24238471  0.91448643  0.32409978  1  -0.641113  0  -0.105859  -0.144063  0  1.352736  0
F  F221  1  0.20923240  0.09541076  0.08195543  1  -0.632978  0  -0.09285  -0.12962  0  1.368167  0
F  F222  1  0.62948752  0.10833389  0.33886328  1  -0.637729  0  -0.107702  -0.152608  0  1.319205  0
F  F223  1  0.54180066  0.87194244  0.13600532  1  -0.625331  0  -0.096195  -0.129078  0  1.338303  0
F  F224  1  0.28370998  0.97279157  0.57365115  1  -0.638768  0  -0.093592  -0.126819  0  1.373184  0
F  F225  1  0.47124277  0.85683325  0.36286261  1  -0.635664  0  -0.096489  -0.130306  0  1.371006  0
F  F226  1  0.50858987  0.15931501  0.75937314  1  -0.632969  0  -0.10846  -0.152501  0  1.318406  0
F  F227  1  0.68565513  0.23024804  0.01740735  1  -0.627536  0  -0.099886  -0.134079  0  1.339417  0
F  F228  1  0.69597129  0.66099861  0.78025483  1  -0.643683  0  -0.097795  -0.145701  0  1.395145  0
F  F229  1  0.58174234  0.46747489  0.98652591  1  -0.637023  0  -0.100685  -0.14447  0  1.365708  0
F  F230  1  0.17545780  0.25945376  0.21040044  1  -0.639918  0  -0.104812  -0.156244  0  1.34555  0
F  F231  1  0.06811141  0.25014104  0.91604040  1  -0.63297  0  -0.099356  -0.141925  0  1.342744  0
F  F232  1  0.16372434  0.50006884  0.95583572  1  -0.635402  0  -0.101291  -0.144925  0  1.36286  0
F  F233  1  0.14207588  0.75636667  0.13993592  1  -0.635182  0  -0.0916  -0.130982  0  1.383434  0
F  F234  1  0.42578384  0.26414313  0.96149931  1  -0.632395  0  -0.091313  -0.122412  0  1.394394  0
F  F235  1  0.32396187  0.55380199  0.97537689  1  -0.631109  0  -0.094956  -0.13001  0  1.394036  0
F  F236  1  0.89574827  0.63574431  0.37831192  1  -0.622059  0  -0.102167  -0.143504  0  1.368649  0
F  F237  1  0.70644287  0.63429410  0.12472509  1  -0.634015  0  -0.084523  -0.125751  0  1.39451  0
F  F238  1  0.68569259  0.77863695  0.66873900  1  -0.638539  0  -0.096077  -0.139358  0  1.397306  0
F  F239  1  0.90012677  0.58621065  0.56865053  1  -0.634929  0  -0.097406  -0.134413  0  1.377292  0
F  F240  1  0.07633649  0.07456977  0.24119812  1  -0.647656  0  -0.087681  -0.133466  0  1.420659  0
F  F241  1  0.85766940  0.22596435  0.38930026  1  -0.634979  0  -0.099511  -0.140038  0  1.368702  0
F  F242  1  0.08729557  0.28269901  0.71508592  1  -0.636703  0  -0.107741  -0.151447  0  1.320182  0
F  F243  1  0.83627190  0.08812227  0.64490313  1  -0.625282  0  -0.099076  -0.133039  0  1.340551  0
F  F244  1  0.89947008  0.48347536  0.33680142  1  -0.629814  0  -0.095082  -0.130265  0  1.400594  0
F  F245  1  0.86272876  0.34053897  0.60125632  1  -0.633088  0  -0.093903  -0.125262  0  1.385657  0
