# generated using pymatgen
data_Al3H31(C24O7)2
_symmetry_space_group_name_H-M   'P 1'
_cell_length_a   13.11088133
_cell_length_b   13.13992761
_cell_length_c   28.48737391
_cell_angle_alpha   89.69476725
_cell_angle_beta   89.79045667
_cell_angle_gamma   59.43057116
_symmetry_Int_Tables_number   1
_chemical_formula_structural   Al3H31(C24O7)2
_chemical_formula_sum   'Al6 H62 C96 O28'
_cell_volume   4225.52637093
_cell_formula_units_Z   2
loop_
 _symmetry_equiv_pos_site_id
 _symmetry_equiv_pos_as_xyz
  1  'x, y, z'
loop_
 _atom_site_type_symbol
 _atom_site_label
 _atom_site_symmetry_multiplicity
 _atom_site_fract_x
 _atom_site_fract_y
 _atom_site_fract_z
 _atom_site_occupancy
 _atom_site_pbe_bader_charge
 _atom_site_pbe_bader_spin_density
 _atom_site_pbe_cm5_charge
 _atom_site_pbe_ddec_charge
 _atom_site_pbe_ddec_spin_density
 _atom_site_pbe_ddec_sum_bond_order
 _atom_site_pbe_magmom
Al  Al0  1  0.77439585  0.47236819  0.49917790  1  2.489477  0  0.399033  1.682093  0  2.553693  0
Al  Al1  1  0.75702458  0.72503441  0.50000844  1  2.480871  0  0.50644  1.662071  0  2.511342  0
Al  Al2  1  0.53005107  0.72113227  0.50079475  1  2.482885  0  0.505722  1.662359  0  2.512549  0
Al  Al3  1  0.52552841  0.22513599  0.00231447  1  2.496168  0  0.397995  1.684019  0  2.553712  0
Al  Al4  1  0.27218804  0.24260390  0.00052972  1  2.48334  0  0.5068  1.661092  0  2.511073  0
Al  Al5  1  0.27578088  0.46878317  0.99961602  1  2.478235  0  0.504534  1.660702  0  2.518087  0
H  H6  1  0.33295988  0.97075781  0.77892705  1  0.048671  0  0.10287  0.093254  0  1.000912  0
H  H7  1  0.87602608  0.69133344  0.20600102  1  0.10717  0  0.102967  0.094701  0  1.008374  0
H  H8  1  0.68643610  0.43836187  0.20996972  1  0.084575  0  0.102382  0.093715  0  1.008855  0
H  H9  1  0.42776430  0.87650665  0.21847469  1  0.068839  0  0.10192  0.093603  0  1.015166  0
H  H10  1  0.52796499  0.76679381  0.73942686  1  0.0825  0  0.098163  0.086775  0  1.030834  0
H  H11  1  0.65525042  0.54872277  0.73256238  1  0.047945  0  0.098958  0.085738  0  1.015407  0
H  H12  1  0.77555279  0.63680273  0.74058007  1  0.108927  0  0.09859  0.088177  0  1.020368  0
H  H13  1  0.21224760  0.44405355  0.23055419  1  0.075104  0  0.099536  0.086922  0  1.010384  0
H  H14  1  0.44306016  0.34823228  0.23448657  1  0.057398  0  0.098637  0.085554  0  1.008996  0
H  H15  1  0.33741150  0.21153953  0.24171775  1  0.05204  0  0.098376  0.084933  0  1.018107  0
H  H16  1  0.68206489  0.79566999  0.80053491  1  0.061424  0  0.10283  0.098398  0  0.996504  0
H  H17  1  0.70046100  0.34008217  0.78056361  1  0.07586  0  0.102136  0.090192  0  0.991279  0
H  H18  1  0.44873524  0.68100253  0.78905837  1  0.092737  0  0.102184  0.096801  0  0.993871  0
H  H19  1  0.89006199  0.41769960  0.78937903  1  0.062569  0  0.102939  0.096426  0  0.989201  0
H  H20  1  0.13503677  0.31778749  0.28778231  1  0.071749  0  0.103103  0.096935  0  0.992807  0
H  H21  1  0.31108619  0.55458781  0.29012122  1  0.063806  0  0.101656  0.095414  0  0.991837  0
H  H22  1  0.54902481  0.13299992  0.29381135  1  0.086276  0  0.104064  0.098327  0  0.988767  0
H  H23  1  0.51384042  0.14043528  0.76996647  1  0.055338  0  0.101295  0.094149  0  0.992565  0
H  H24  1  0.35930689  0.43661301  0.76766141  1  0.056058  0  0.098028  0.086609  0  1.013763  0
H  H25  1  0.20255897  0.39526200  0.76843360  1  0.027576  0  0.099575  0.088924  0  1.003791  0
H  H26  1  0.79846575  0.56560344  0.26315073  1  0.068202  0  0.099332  0.089742  0  1.004409  0
H  H27  1  0.55520280  0.64479595  0.26561069  1  0.044772  0  0.097945  0.087639  0  1.007932  0
H  H28  1  0.91339579  0.70951963  0.79141897  1  0.080348  0  0.102012  0.091654  0  1.017487  0
H  H29  1  0.63931908  0.79773136  0.27079476  1  0.072039  0  0.099675  0.089571  0  1.005409  0
H  H30  1  0.74754696  0.05132343  0.77794674  1  0.036071  0  0.088136  0.113585  0  1.004828  0
H  H31  1  0.81334020  0.90397877  0.79821626  1  0.03923  0  0.088077  0.112089  0  1.013202  0
H  H32  1  0.88875394  0.94267121  0.75643496  1  0.020744  0  0.087794  0.112851  0  1.015792  0
H  H33  1  0.80009195  0.84005593  0.71412007  1  0.047921  0  0.095481  0.095825  0  0.977846  0
H  H34  1  0.72686899  0.98925902  0.69670124  1  0.015668  0  0.097573  0.094968  0  0.968687  0
H  H35  1  0.18081341  0.67000995  0.77669678  1  0.048173  0  0.088627  0.11751  0  1.005009  0
H  H36  1  0.21873404  0.78126983  0.77838728  1  0.030751  0  0.087905  0.113524  0  1.005774  0
H  H37  1  0.10339669  0.79798216  0.74087180  1  0.021246  0  0.08753  0.111501  0  1.016836  0
H  H38  1  0.29239414  0.73706121  0.69497595  1  0.027457  0  0.098268  0.097695  0  0.965191  0
H  H39  1  0.04524886  0.65708636  0.27533542  1  0.052879  0  0.102719  0.0917  0  0.996166  0
H  H40  1  0.24866768  0.63131728  0.69023395  1  0.037411  0  0.095496  0.089768  0  0.978735  0
H  H41  1  0.19738585  0.19000747  0.76907865  1  0.009601  0  0.08715  0.113341  0  1.013056  0
H  H42  1  0.05793220  0.19968397  0.77248711  1  0.014925  0  0.087947  0.113068  0  1.004995  0
H  H43  1  0.16486132  0.10371589  0.73101421  1  0.033724  0  0.08901  0.114823  0  1.006755  0
H  H44  1  0.00631705  0.29069912  0.69128265  1  0.066207  0  0.100385  0.101689  0  0.960403  0
H  H45  1  0.14656915  0.27668927  0.68598550  1  0.027726  0  0.095877  0.090827  0  0.974247  0
H  H46  1  0.99295996  0.22697346  0.27904270  1  0.035925  0  0.088985  0.115023  0  1.002989  0
H  H47  1  0.84367672  0.34057263  0.27210006  1  0.000172  0  0.088091  0.115228  0  1.011606  0
H  H48  1  0.89993193  0.20841312  0.23911599  1  0.026267  0  0.089881  0.116427  0  1.000777  0
H  H49  1  0.88909733  0.36698343  0.18659695  1  0.011131  0  0.095355  0.088837  0  0.979972  0
H  H50  1  0.65341404  0.30437976  0.28056518  1  0.081447  0  0.103665  0.093276  0  0.992552  0
H  H51  1  0.03812449  0.25812300  0.19561680  1  0.037739  0  0.098145  0.096955  0  0.965408  0
H  H52  1  0.21192414  0.78798069  0.27845140  1  0.023011  0  0.087817  0.113009  0  1.00632  0
H  H53  1  0.32549968  0.82262486  0.27435073  1  0.026066  0  0.086643  0.112238  0  1.01684  0
H  H54  1  0.19634183  0.90068106  0.23927425  1  0.052711  0  0.089238  0.116341  0  1.001054  0
H  H55  1  0.35960317  0.75206197  0.18840466  1  0.028007  0  0.095111  0.088799  0  0.979764  0
H  H56  1  0.25255853  0.71044686  0.19568143  1  0.039498  0  0.09764  0.096637  0  0.965662  0
H  H57  1  0.78524474  0.98765722  0.27973085  1  0.027869  0  0.088141  0.113596  0  1.004308  0
H  H58  1  0.82023869  0.83961486  0.27295053  1  0.009031  0  0.086641  0.1129  0  1.015976  0
H  H59  1  0.89189891  0.89595485  0.23733242  1  0.01868  0  0.089457  0.116096  0  1.002396  0
H  H60  1  0.73522299  0.88997413  0.18943638  1  0.020026  0  0.096099  0.089994  0  0.980044  0
H  H61  1  0.29891641  0.04399846  0.28965012  1  0.068537  0  0.104286  0.093852  0  0.990551  0
H  H62  1  0.69591634  0.03759557  0.19835217  1  0.051826  0  0.101194  0.102708  0  0.959379  0
H  H63  1  0.35958649  0.11101985  0.70905547  1  0.074076  0  0.103222  0.094312  0  1.001717  0
H  H64  1  0.56566072  0.30445141  0.71159226  1  0.067528  0  0.102266  0.091867  0  0.992078  0
H  H65  1  0.08680418  0.61518559  0.71946136  1  0.063628  0  0.101618  0.094087  0  1.021457  0
H  H66  1  0.86270444  0.27902487  0.52775753  1  0.582144  0  0.292078  0.381745  0  0.924809  0
H  H67  1  0.72016952  0.13313157  0.97446354  1  0.583238  0  0.292423  0.383356  0  0.922228  0
C  C68  1  0.56553784  0.54980486  0.56572186  1  1.64997  0  0.276006  0.714072  0  4.167687  0
C  C69  1  0.02589514  0.49029285  0.19931137  1  0.102186  0  0.005849  0.077131  0  3.792492  0
C  C70  1  0.48641536  0.48898993  0.20266171  1  0.137356  0  0.005656  0.084185  0  3.804657  0
C  C71  1  0.47570480  0.02616053  0.20858985  1  0.096173  0  0.006357  0.08412  0  3.796289  0
C  C72  1  0.61057520  0.86550044  0.77971795  1  -0.039023  0  -0.072278  -0.120256  0  3.618788  0
C  C73  1  0.47500369  0.59770914  0.77118787  1  -0.060579  0  -0.0729  -0.119532  0  3.618415  0
C  C74  1  0.93376980  0.46158898  0.77348990  1  -0.024309  0  -0.070499  -0.112572  0  3.611452  0
C  C75  1  0.07790911  0.40073541  0.26917457  1  -0.044039  0  -0.070328  -0.114212  0  3.613364  0
C  C76  1  0.39432852  0.52868691  0.27186377  1  -0.03345  0  -0.071414  -0.115891  0  3.613978  0
C  C77  1  0.52181674  0.07628020  0.27665530  1  -0.061691  0  -0.069397  -0.113084  0  3.61198  0
C  C78  1  0.52461404  0.84995440  0.74672909  1  -0.051193  0  -0.071708  -0.078411  0  3.648169  0
C  C79  1  0.88846323  0.55990373  0.56807519  1  1.662231  0  0.274813  0.711491  0  4.166541  0
C  C80  1  0.58925371  0.52409523  0.74113079  1  -0.009387  0  -0.069911  -0.073125  0  3.6406  0
C  C81  1  0.87064967  0.58294332  0.74724656  1  -0.077245  0  -0.070589  -0.081317  0  3.648358  0
C  C82  1  0.12023585  0.47096345  0.23845906  1  -0.028953  0  -0.067425  -0.07008  0  3.638019  0
C  C83  1  0.46775386  0.41438659  0.24211481  1  -0.024871  0  -0.069134  -0.072826  0  3.644799  0
C  C84  1  0.40462886  0.11935844  0.24863679  1  -0.008194  0  -0.069421  -0.073523  0  3.642974  0
C  C85  1  0.48298155  0.01096038  0.84987583  1  -0.558648  0  -0.027777  -0.042068  0  4.077697  0
C  C86  1  0.48778675  0.46879255  0.84628226  1  -0.455479  0  -0.026913  -0.038994  0  4.090364  0
C  C87  1  0.04060877  0.48276370  0.85013962  1  -0.310782  0  -0.015764  -0.017929  0  4.059489  0
C  C88  1  0.96046773  0.53279436  0.34323504  1  -0.461858  0  -0.0252  -0.038547  0  4.075178  0
C  C89  1  0.52539203  0.51721753  0.34583983  1  -0.268612  0  -0.025004  -0.037229  0  4.08259  0
C  C90  1  0.57857402  0.85105269  0.56864340  1  1.641541  0  0.28077  0.721183  0  4.158484  0
C  C91  1  0.51703598  0.95586102  0.35220775  1  -0.491956  0  -0.011407  -0.009485  0  4.050841  0
C  C92  1  0.55232402  0.90565597  0.65885046  1  -0.609849  0  -0.015724  -0.010659  0  4.065586  0
C  C93  1  0.52496464  0.51666866  0.65382983  1  -0.222561  0  -0.025309  -0.031502  0  4.089309  0
C  C94  1  0.94548317  0.54261083  0.65811361  1  -0.12113  0  -0.027479  -0.036704  0  4.088437  0
C  C95  1  0.05105542  0.47401008  0.15077556  1  -0.113252  0  -0.012082  -0.00413  0  4.059354  0
C  C96  1  0.47314873  0.47801175  0.15417448  1  -0.475796  0  -0.022905  -0.026693  0  4.087818  0
C  C97  1  0.46200387  0.04980200  0.15984784  1  -0.510182  0  -0.024814  -0.030982  0  4.085242  0
C  C98  1  0.56911783  0.55467526  0.43266028  1  1.662378  0  0.276979  0.709236  0  4.170623  0
C  C99  1  0.89024319  0.56139994  0.43201536  1  1.6438  0  0.279027  0.708  0  4.166708  0
C  C100  1  0.56484124  0.87084518  0.43861109  1  1.621559  0  0.284458  0.724709  0  4.1512  0
C  C101  1  0.44117819  0.43569986  0.06650556  1  1.655224  0  0.277456  0.710229  0  4.172928  0
C  C102  1  0.44881569  0.42739679  0.93348213  1  1.699027  0  0.275756  0.714861  0  4.168717  0
C  C103  1  0.44179507  0.10032145  0.93574577  1  1.66955  0  0.275336  0.709811  0  4.166284  0
C  C104  1  0.13243156  0.43049896  0.93545240  1  1.663163  0  0.282006  0.72171  0  4.156807  0
C  C105  1  0.43071613  0.04160863  0.73007838  1  -0.024175  0  -0.06806  -0.072898  0  3.6431  0
C  C106  1  0.53965943  0.38783048  0.72928793  1  -0.026364  0  -0.070042  -0.076458  0  3.648879  0
C  C107  1  0.04377799  0.57101341  0.73545764  1  -0.012032  0  -0.071787  -0.0826  0  3.64839  0
C  C108  1  0.93320306  0.60871625  0.22469399  1  -0.060373  0  -0.068721  -0.074236  0  3.641798  0
C  C109  1  0.60349961  0.46430754  0.22836547  1  -0.040986  0  -0.07058  -0.077594  0  3.644657  0
C  C110  1  0.45466651  0.93319027  0.23570972  1  -0.023737  0  -0.071549  -0.079745  0  3.646384  0
C  C111  1  0.41643690  0.96302859  0.76778799  1  0.008221  0  -0.071642  -0.084609  0  3.637299  0
C  C112  1  0.43584242  0.11372126  0.07028572  1  1.651495  0  0.278298  0.708984  0  4.168667  0
C  C113  1  0.61480154  0.40786289  0.76658379  1  -0.040444  0  -0.069867  -0.078391  0  3.635862  0
C  C114  1  0.94672739  0.62382637  0.77457036  1  -0.030741  0  -0.0705  -0.082605  0  3.634219  0
C  C115  1  0.02775346  0.58924302  0.26240675  1  0.003897  0  -0.070086  -0.083246  0  3.637448  0
C  C116  1  0.58474244  0.38956261  0.26657978  1  -0.037061  0  -0.070086  -0.081716  0  3.635102  0
C  C117  1  0.38288583  0.02672080  0.27439400  1  -0.019656  0  -0.068334  -0.078151  0  3.631542  0
C  C118  1  0.46558526  0.04403473  0.89055916  1  0.251329  0  -0.04311  -0.197215  0  3.972059  0
C  C119  1  0.47287570  0.45606494  0.88762858  1  0.110448  0  -0.044962  -0.203218  0  3.985173  0
C  C120  1  0.07344400  0.46242757  0.89090317  1  0.014994  0  -0.044396  -0.209571  0  3.968581  0
C  C121  1  0.93623278  0.54323828  0.38494653  1  0.181416  0  -0.041071  -0.197325  0  3.971729  0
C  C122  1  0.53924546  0.53245922  0.38691930  1  0.012458  0  -0.043719  -0.200265  0  3.981778  0
C  C123  1  0.13024599  0.42948032  0.06360206  1  1.664183  0  0.282307  0.723398  0  4.154942  0
C  C124  1  0.53398857  0.92746483  0.39356013  1  0.248358  0  -0.043249  -0.212146  0  3.963908  0
C  C125  1  0.55952163  0.89007888  0.61648096  1  0.318519  0  -0.04494  -0.214084  0  3.965547  0
C  C126  1  0.53668782  0.52875097  0.61207247  1  -0.076424  0  -0.043776  -0.204151  0  3.976346  0
C  C127  1  0.92781226  0.54819257  0.61593159  1  -0.150023  0  -0.042843  -0.200505  0  3.970064  0
C  C128  1  0.07651562  0.45772694  0.10916538  1  -0.184072  0  -0.044508  -0.216028  0  3.964255  0
C  C129  1  0.46076157  0.46583147  0.11259910  1  0.166457  0  -0.043563  -0.205639  0  3.978429  0
C  C130  1  0.45121934  0.07133283  0.11787576  1  0.238148  0  -0.042324  -0.203207  0  3.974372  0
C  C131  1  0.51704963  0.05716843  0.76266392  1  -0.038864  0  -0.069883  -0.110703  0  3.606497  0
C  C132  1  0.42526627  0.46145815  0.75921020  1  -0.029182  0  -0.069948  -0.108749  0  3.611417  0
C  C133  1  0.10742644  0.44949670  0.76156659  1  0.006237  0  -0.068423  -0.106313  0  3.604775  0
C  C134  1  0.53913845  0.92784410  0.70761041  1  0.124951  0  0.004941  0.076552  0  3.797014  0
C  C135  1  0.89066191  0.53868769  0.25544455  1  -0.052682  0  -0.069186  -0.110729  0  3.608606  0
C  C136  1  0.53035810  0.57865099  0.25805651  1  -0.017428  0  -0.070546  -0.112319  0  3.614043  0
C  C137  1  0.57186716  0.88985459  0.26366088  1  -0.040869  0  -0.068163  -0.107977  0  3.606132  0
C  C138  1  0.50193298  0.97954862  0.80186590  1  0.126231  0  0.008278  0.127842  0  3.8009  0
C  C139  1  0.50026384  0.48138666  0.79774981  1  0.148131  0  0.007733  0.126734  0  3.819103  0
C  C140  1  0.01047253  0.50190843  0.80200849  1  0.112548  0  0.008499  0.120565  0  3.80227  0
C  C141  1  0.98504294  0.51918683  0.29453226  1  0.137061  0  0.008082  0.12616  0  3.800792  0
C  C142  1  0.51151965  0.50420037  0.29752220  1  0.098156  0  0.008382  0.127367  0  3.810658  0
C  C143  1  0.50034495  0.98327117  0.30377166  1  0.109774  0  0.008874  0.119065  0  3.801216  0
C  C144  1  0.62609367  0.94344679  0.74167172  1  0.029581  0  0.004887  0.091117  0  3.637852  0
C  C145  1  0.51426988  0.50420848  0.70253432  1  0.143649  0  0.006622  0.08625  0  3.799878  0
C  C146  1  0.39898690  0.57845283  0.73372122  1  0.016151  0  0.004075  0.089616  0  3.636334  0
C  C147  1  0.03145835  0.40794453  0.73435386  1  0.033741  0  0.005398  0.094465  0  3.639776  0
C  C148  1  0.98304979  0.41971808  0.23136642  1  0.042707  0  0.005693  0.09162  0  3.63959  0
C  C149  1  0.41265094  0.60426649  0.23353062  1  0.014057  0  0.003834  0.090045  0  3.638061  0
C  C150  1  0.59415507  0.98244040  0.23779593  1  0.055411  0  0.004992  0.091856  0  3.637158  0
C  C151  1  0.74172874  0.93083739  0.72702677  1  0.008622  0  -0.159033  -0.153118  0  4.017137  0
C  C152  1  0.80124738  0.95858137  0.76700209  1  -0.075907  0  -0.240608  -0.347513  0  3.97867  0
C  C153  1  0.28098129  0.67203016  0.71543685  1  -0.00553  0  -0.159175  -0.152805  0  4.018228  0
C  C154  1  0.19098203  0.73366611  0.75493485  1  -0.085541  0  -0.24203  -0.352216  0  3.981135  0
C  C155  1  0.07780877  0.29005466  0.71175894  1  -0.041782  0  -0.159202  -0.153446  0  4.02082  0
C  C156  1  0.96759808  0.53056927  0.70693032  1  0.084879  0  0.00506  0.083159  0  3.803557  0
C  C157  1  0.12716517  0.19025345  0.74801240  1  -0.034044  0  -0.241758  -0.353545  0  3.989014  0
C  C158  1  0.95857726  0.32714379  0.21375709  1  0.016662  0  -0.158844  -0.152541  0  4.022823  0
C  C159  1  0.92177756  0.27272904  0.25310953  1  -0.052959  0  -0.240857  -0.351637  0  3.979553  0
C  C160  1  0.31904846  0.72172383  0.21485656  1  0.009923  0  -0.159231  -0.152794  0  4.021051  0
C  C161  1  0.25985787  0.81339910  0.25378755  1  -0.092339  0  -0.242197  -0.352879  0  3.984979  0
C  C162  1  0.70936487  0.95781130  0.21687345  1  -0.017425  0  -0.158612  -0.153391  0  4.016633  0
C  C163  1  0.80712699  0.91808785  0.25367851  1  -0.040077  0  -0.241282  -0.352311  0  3.98555  0
O  O164  1  0.86592615  0.48332566  0.55302794  1  -1.218252  0  -0.210128  -0.558783  0  2.29249  0
O  O165  1  0.51661400  0.33547335  0.05082046  1  -1.213137  0  -0.203832  -0.544343  0  2.291252  0
O  O166  1  0.34111533  0.13235258  0.04892978  1  -1.26135  0  -0.243752  -0.608961  0  2.237308  0
O  O167  1  0.15758871  0.50184040  0.04557633  1  -1.24616  0  -0.227063  -0.58904  0  2.25463  0
O  O168  1  0.87319912  0.48305185  0.44971656  1  -1.211022  0  -0.200307  -0.533112  0  2.277039  0
O  O169  1  0.66496186  0.84590450  0.45586210  1  -1.239154  0  -0.227219  -0.589415  0  2.250529  0
O  O170  1  0.49163976  0.65178655  0.45260545  1  -1.258334  0  -0.243739  -0.608889  0  2.239757  0
O  O171  1  0.51702055  0.12385366  0.95173364  1  -1.213067  0  -0.209867  -0.559676  0  2.289288  0
O  O172  1  0.15860662  0.33016201  0.95282260  1  -1.241863  0  -0.227084  -0.588244  0  2.252316  0
O  O173  1  0.35111498  0.50562338  0.95287389  1  -1.254622  0  -0.242576  -0.604722  0  2.239118  0
O  O174  1  0.66964328  0.48000252  0.44868822  1  -1.222236  0  -0.204243  -0.545142  0  2.293116  0
O  O175  1  0.67317974  0.83511974  0.54865711  1  -1.250141  0  -0.229668  -0.591038  0  2.249448  0
O  O176  1  0.86608807  0.65977902  0.45151332  1  -1.256347  0  -0.242559  -0.606697  0  2.237088  0
O  O177  1  0.49250687  0.84392685  0.45722682  1  -1.239721  0  -0.226499  -0.58888  0  2.247543  0
O  O178  1  0.52234830  0.32705506  0.95006715  1  -1.229836  0  -0.212542  -0.567817  0  2.299374  0
O  O179  1  0.34234794  0.12598315  0.95527246  1  -1.247029  0  -0.24444  -0.605879  0  2.229413  0
O  O180  1  0.15925824  0.50301585  0.95336687  1  -1.244398  0  -0.227577  -0.588567  0  2.251481  0
O  O181  1  0.68619269  0.64132727  0.50018600  1  -1.609503  0  -0.390773  -1.272898  0  2.294355  0
O  O182  1  0.35614927  0.31302123  0.00052000  1  -1.614702  0  -0.390846  -1.2728  0  2.295034  0
O  O183  1  0.48739594  0.64641264  0.54544562  1  -1.256587  0  -0.243278  -0.604638  0  2.233025  0
O  O184  1  0.51408306  0.13289084  0.05385982  1  -1.210621  0  -0.201409  -0.534106  0  2.282796  0
O  O185  1  0.15239312  0.33145109  0.04529293  1  -1.244911  0  -0.229249  -0.591179  0  2.247218  0
O  O186  1  0.34464408  0.51277366  0.04577229  1  -1.260484  0  -0.244555  -0.608761  0  2.235694  0
O  O187  1  0.66588126  0.47564057  0.54939879  1  -1.219991  0  -0.212405  -0.566519  0  2.294967  0
O  O188  1  0.87506407  0.65087116  0.54501775  1  -1.255474  0  -0.246312  -0.609212  0  2.228831  0
O  O189  1  0.50250698  0.82981856  0.55024690  1  -1.24406  0  -0.228711  -0.588987  0  2.24921  0
O  O190  1  0.85784029  0.31792212  0.49826698  1  -1.365291  0  -0.576225  -0.991177  0  1.79586  0
O  O191  1  0.68037860  0.14322195  0.00417532  1  -1.3717  0  -0.577157  -0.994245  0  1.793123  0
