# generated using pymatgen
data_AlH27(C5O)6
_symmetry_space_group_name_H-M   'P 1'
_cell_length_a   3.94537379
_cell_length_b   28.68396316
_cell_length_c   28.68386864
_cell_angle_alpha   119.99866047
_cell_angle_beta   89.99831635
_cell_angle_gamma   90.00026530
_symmetry_Int_Tables_number   1
_chemical_formula_structural   AlH27(C5O)6
_chemical_formula_sum   'Al2 H54 C60 O12'
_cell_volume   2811.26334068
_cell_formula_units_Z   2
loop_
 _symmetry_equiv_pos_site_id
 _symmetry_equiv_pos_as_xyz
  1  'x, y, z'
loop_
 _atom_site_type_symbol
 _atom_site_label
 _atom_site_symmetry_multiplicity
 _atom_site_fract_x
 _atom_site_fract_y
 _atom_site_fract_z
 _atom_site_occupancy
 _atom_site_pbe_bader_charge
 _atom_site_pbe_bader_spin_density
 _atom_site_pbe_cm5_charge
 _atom_site_pbe_ddec_charge
 _atom_site_pbe_ddec_spin_density
 _atom_site_pbe_ddec_sum_bond_order
 _atom_site_pbe_magmom
Al  Al0  1  0.00179719  0.50000355  0.49999377  1  2.500905  0  0.424192  1.585264  0  2.572829  0
Al  Al1  1  0.00192221  0.16666328  0.83333206  1  2.500823  0  0.424478  1.585214  0  2.572821  0
H  H2  1  0.54922801  0.23083057  0.64375567  1  0.051659  0  0.095759  0.095731  0  1.019775  0
H  H3  1  0.45064524  0.37544580  0.79767139  1  -0.013296  0  0.093741  0.092733  0  1.013656  0
H  H4  1  0.45082434  0.29116462  0.53557534  1  -0.013814  0  0.093726  0.092708  0  1.013479  0
H  H5  1  0.54898591  0.43577161  0.68951190  1  0.053539  0  0.095796  0.095642  0  1.019738  0
H  H6  1  0.49130378  0.38482884  0.72210585  1  0.038027  0  0.095543  0.089077  0  1.013685  0
H  H7  1  0.49145595  0.28178546  0.61117160  1  0.036472  0  0.09577  0.089173  0  1.013626  0
H  H8  1  0.54914547  0.91292726  0.76917907  1  0.054861  0  0.095828  0.095908  0  1.019885  0
H  H9  1  0.45065360  0.92222571  0.62455996  1  0.031824  0  0.093791  0.0928  0  1.013786  0
H  H10  1  0.45085415  0.74441093  0.70883936  1  0.028775  0  0.093795  0.09285  0  1.01339  0
H  H11  1  0.54897737  0.75375002  0.56423403  1  0.057011  0  0.095882  0.095764  0  1.019544  0
H  H12  1  0.49131845  0.83728059  0.61517898  1  0.030375  0  0.095571  0.089021  0  1.013823  0
H  H13  1  0.49147437  0.82938626  0.71821984  1  0.028642  0  0.095819  0.089229  0  1.013653  0
H  H14  1  0.54917934  0.35624066  0.08706576  1  0.092363  0  0.095782  0.095745  0  1.019732  0
H  H15  1  0.45062673  0.20232696  0.07777922  1  0.033489  0  0.093753  0.092744  0  1.013725  0
H  H16  1  0.45089594  0.46442283  0.25557365  1  0.030939  0  0.093845  0.092871  0  1.013297  0
H  H17  1  0.54905727  0.31049206  0.24625889  1  0.095217  0  0.095874  0.095715  0  1.019801  0
H  H18  1  0.49133234  0.27788973  0.16272465  1  0.035461  0  0.095474  0.088929  0  1.013651  0
H  H19  1  0.49152357  0.38882262  0.17060194  1  0.033468  0  0.095755  0.089119  0  1.013478  0
H  H20  1  0.70995211  0.33517127  0.87825921  1  0.05268  0  0.092596  0.131978  0  1.012259  0
H  H21  1  0.30397024  0.30771202  0.87432874  1  0.059788  0  0.095585  0.135384  0  1.017658  0
H  H22  1  0.34538170  0.37045120  0.87608607  1  0.008667  0  0.087919  0.119791  0  1.002997  0
H  H23  1  0.29468478  0.14063466  0.67125903  1  0.066657  0  0.092695  0.131506  0  1.012629  0
H  H24  1  0.70402983  0.14195374  0.69658718  1  0.032257  0  0.095487  0.134926  0  1.015803  0
H  H25  1  0.65390671  0.14804323  0.63810559  1  0.001756  0  0.087844  0.11908  0  1.002824  0
H  H26  1  0.29434291  0.52598054  0.66205092  1  0.06556  0  0.092626  0.131516  0  1.012873  0
H  H27  1  0.70370863  0.52468611  0.63673369  1  0.033513  0  0.095608  0.135187  0  1.01606  0
H  H28  1  0.65354721  0.51855485  0.69518977  1  0.002774  0  0.087853  0.119342  0  1.003281  0
H  H29  1  0.71009444  0.33148278  0.45501466  1  0.032681  0  0.092493  0.131739  0  1.012564  0
H  H30  1  0.30404426  0.35893109  0.45894347  1  0.060236  0  0.09552  0.135228  0  1.01755  0
H  H31  1  0.34553242  0.29617948  0.45716272  1  0.008109  0  0.087976  0.119919  0  1.002912  0
H  H32  1  0.71002081  0.04308101  0.66482719  1  0.054718  0  0.092644  0.132018  0  1.012394  0
H  H33  1  0.30403643  0.06661523  0.69228425  1  0.059008  0  0.095494  0.135215  0  1.01759  0
H  H34  1  0.34543749  0.00563194  0.62954760  1  0.0224  0  0.087857  0.119722  0  1.003138  0
H  H35  1  0.29464206  0.03062767  0.85937539  1  0.060673  0  0.092685  0.131501  0  1.012811  0
H  H36  1  0.70399041  0.05463441  0.85804704  1  0.03598  0  0.095522  0.135011  0  1.015759  0
H  H37  1  0.65386556  0.99006682  0.85196459  1  -0.003042  0  0.087915  0.119177  0  1.002708  0
H  H38  1  0.29436028  0.63607701  0.47401799  1  0.061294  0  0.092665  0.131529  0  1.012907  0
H  H39  1  0.70372270  0.61205976  0.47531366  1  0.036934  0  0.095568  0.135139  0  1.016151  0
H  H40  1  0.65354290  0.67664348  0.48144337  1  -0.001796  0  0.087897  0.119478  0  1.003107  0
H  H41  1  0.71012458  0.62354024  0.66851854  1  0.033241  0  0.09254  0.13182  0  1.012559  0
H  H42  1  0.30409211  0.60001592  0.64107382  1  0.058425  0  0.095601  0.135294  0  1.017609  0
H  H43  1  0.34555266  0.66098600  0.70382410  1  0.021203  0  0.087989  0.119952  0  1.002917  0
H  H44  1  0.70993466  0.12173704  0.95691568  1  0.051265  0  0.092603  0.132013  0  1.012352  0
H  H45  1  0.30398336  0.12567266  0.93339026  1  0.06005  0  0.095605  0.135419  0  1.017472  0
H  H46  1  0.34536187  0.12390826  0.99436651  1  0.01327  0  0.087878  0.119777  0  1.002896  0
H  H47  1  0.29464049  0.32873340  0.96937033  1  0.064626  0  0.092704  0.131531  0  1.012656  0
H  H48  1  0.70397776  0.30340658  0.94536041  1  0.033179  0  0.095501  0.134957  0  1.015733  0
H  H49  1  0.65384712  0.36188591  0.00992691  1  0.046845  0  0.087853  0.119163  0  1.003074  0
H  H50  1  0.29440241  0.33795600  0.36393653  1  0.064599  0  0.092558  0.131282  0  1.012743  0
H  H51  1  0.70377845  0.36327466  0.38795394  1  0.034054  0  0.095529  0.13506  0  1.016032  0
H  H52  1  0.65362949  0.30481573  0.32336955  1  0.048159  0  0.087802  0.119257  0  1.003289  0
H  H53  1  0.71017778  0.54498622  0.37645074  1  0.05007  0  0.092562  0.131879  0  1.012189  0
H  H54  1  0.30409196  0.54106262  0.39997733  1  0.06151  0  0.095628  0.135315  0  1.017228  0
H  H55  1  0.34559533  0.54284257  0.33899920  1  0.013329  0  0.087906  0.119866  0  1.002702  0
C  C56  1  0.50148195  0.46220282  0.41651252  1  1.559342  0  0.278668  0.672222  0  4.038421  0
C  C57  1  0.50146101  0.45432391  0.53780574  1  1.560768  0  0.278818  0.672603  0  4.038006  0
C  C58  1  0.50143712  0.58349535  0.54567866  1  1.514421  0  0.278912  0.672702  0  4.038623  0
C  C59  1  0.50160351  0.21231603  0.79548645  1  1.560535  0  0.278732  0.672445  0  4.038887  0
C  C60  1  0.50158430  0.08316759  0.78768605  1  1.514478  0  0.278826  0.672492  0  4.038771  0
C  C61  1  0.50156988  0.20450962  0.91683405  1  1.558927  0  0.278923  0.672588  0  4.038493  0
C  C62  1  0.49994940  0.24535933  0.76853056  1  0.098475  0  -0.013902  -0.162338  0  3.866537  0
C  C63  1  0.52080991  0.21963900  0.71184174  1  -0.056452  0  -0.001706  0.166729  0  3.973177  0
C  C64  1  0.52345673  0.25109534  0.68744408  1  -0.050788  0  -0.093564  -0.197451  0  3.932899  0
C  C65  1  0.49688159  0.30749144  0.71740682  1  -0.093585  0  -0.011749  0.126878  0  4.082046  0
C  C66  1  0.47358786  0.33167038  0.77363875  1  0.145475  0  -0.095519  -0.206507  0  3.951155  0
C  C67  1  0.47853964  0.30183896  0.79991092  1  -0.061597  0  -0.002185  0.170096  0  3.968749  0
C  C68  1  0.49483433  0.34158713  0.69321664  1  -0.089926  0  -0.09002  -0.12443  0  3.993759  0
C  C69  1  0.49487531  0.32502846  0.64003996  1  0.009322  0  -0.090079  -0.124194  0  3.994065  0
C  C70  1  0.47366445  0.33494404  0.55962196  1  0.121133  0  -0.095411  -0.206528  0  3.951067  0
C  C71  1  0.49691638  0.35911245  0.61584893  1  -0.070762  0  -0.0114  0.127244  0  4.083672  0
C  C72  1  0.52329439  0.41550695  0.64582006  1  -0.050869  0  -0.094125  -0.197924  0  3.934603  0
C  C73  1  0.52058557  0.44698038  0.62143949  1  -0.016685  0  -0.00165  0.166971  0  3.97312  0
C  C74  1  0.49979984  0.42126586  0.56474849  1  0.097783  0  -0.014056  -0.162584  0  3.866669  0
C  C75  1  0.47856472  0.36478755  0.53336067  1  -0.06114  0  -0.002062  0.170168  0  3.96978  0
C  C76  1  0.49992665  0.02316942  0.75464380  1  0.012789  0  -0.013939  -0.162407  0  3.866608  0
C  C77  1  0.52076559  0.99220268  0.78036633  1  0.011406  0  -0.001671  0.166855  0  3.9735  0
C  C78  1  0.52340402  0.93635014  0.74891464  1  -0.127116  0  -0.093609  -0.197819  0  3.933305  0
C  C79  1  0.49686974  0.90991626  0.69251352  1  -0.006393  0  -0.011747  0.127133  0  4.08154  0
C  C80  1  0.47358491  0.94196906  0.66833315  1  0.119352  0  -0.095604  -0.206697  0  3.95119  0
C  C81  1  0.47854544  0.99807021  0.69816473  1  -0.0814  0  -0.002129  0.170232  0  3.968833  0
C  C82  1  0.49483204  0.85163109  0.65841786  1  -0.044497  0  -0.090044  -0.124387  0  3.99381  0
C  C83  1  0.49488281  0.81501743  0.67498114  1  0.07637  0  -0.09006  -0.124242  0  3.99419  0
C  C84  1  0.47366755  0.72467941  0.66506185  1  0.119674  0  -0.095539  -0.206805  0  3.95089  0
C  C85  1  0.49691064  0.75674378  0.64089417  1  -0.002524  0  -0.011413  0.127356  0  4.083131  0
C  C86  1  0.52328389  0.73032096  0.58449436  1  -0.131328  0  -0.094287  -0.198125  0  3.934009  0
C  C87  1  0.52056921  0.67446773  0.55302107  1  0.015665  0  -0.001578  0.167226  0  3.972697  0
C  C88  1  0.49978456  0.64348941  0.57873129  1  0.010763  0  -0.014106  -0.162992  0  3.867209  0
C  C89  1  0.47855400  0.66857605  0.63521153  1  -0.082423  0  -0.002001  0.170312  0  3.969592  0
C  C90  1  0.49992394  0.23146788  0.97683438  1  -0.047446  0  -0.013919  -0.162526  0  3.866663  0
C  C91  1  0.52076612  0.28815240  0.00779015  1  0.120489  0  -0.001603  0.167004  0  3.973647  0
C  C92  1  0.52342436  0.31254829  0.06364119  1  -0.194938  0  -0.093589  -0.197536  0  3.933087  0
C  C93  1  0.49687086  0.28258460  0.09007782  1  -0.022391  0  -0.011761  0.126816  0  4.082058  0
C  C94  1  0.47357264  0.22635296  0.05802848  1  0.041774  0  -0.095511  -0.206546  0  3.951516  0
C  C95  1  0.47851824  0.20007885  0.00192557  1  -0.059513  0  -0.0022  0.170254  0  3.968999  0
C  C96  1  0.49485754  0.30678864  0.14837421  1  -0.08515  0  -0.090042  -0.124418  0  3.993543  0
C  C97  1  0.49493561  0.35996216  0.18498921  1  0.008514  0  -0.089957  -0.124006  0  3.994213  0
C  C98  1  0.47373531  0.44037512  0.27530342  1  0.048807  0  -0.095381  -0.206602  0  3.951192  0
C  C99  1  0.49699034  0.38415308  0.24325757  1  -0.03053  0  -0.011458  0.127329  0  4.084051  0
C  C100  1  0.52336719  0.35418080  0.26968030  1  -0.190657  0  -0.09424  -0.198046  0  3.934744  0
C  C101  1  0.52064444  0.37856282  0.32553197  1  0.116827  0  -0.001531  0.167187  0  3.972981  0
C  C102  1  0.49983290  0.43525170  0.35650646  1  -0.046668  0  -0.013958  -0.162771  0  3.86654  0
C  C103  1  0.47860880  0.46663609  0.33140688  1  -0.060596  0  -0.002301  0.170118  0  3.969769  0
C  C104  1  0.45688543  0.33027514  0.86034174  1  -0.089505  0  -0.239555  -0.414627  0  3.963614  0
C  C105  1  0.54614602  0.15939971  0.67767672  1  -0.037141  0  -0.239812  -0.413303  0  3.964542  0
C  C106  1  0.54582261  0.50722528  0.65563219  1  -0.076368  0  -0.239794  -0.413881  0  3.965797  0
C  C107  1  0.45698601  0.33635981  0.47292226  1  -0.071253  0  -0.239561  -0.414369  0  3.963411  0
C  C108  1  0.45693883  0.03006201  0.66972423  1  -0.0938  0  -0.239518  -0.414545  0  3.963727  0
C  C109  1  0.54609788  0.01827844  0.84060729  1  -0.030514  0  -0.239896  -0.413483  0  3.964516  0
C  C110  1  0.54583273  0.64841672  0.49277300  1  -0.031651  0  -0.239832  -0.413965  0  3.965466  0
C  C111  1  0.45700611  0.63656535  0.66364287  1  -0.07151  0  -0.23967  -0.4145  0  3.963411  0
C  C112  1  0.45688023  0.13965555  0.96993945  1  -0.029192  0  -0.239537  -0.414715  0  3.963845  0
C  C113  1  0.54609810  0.32231768  0.98171809  1  -0.084078  0  -0.239837  -0.413464  0  3.964847  0
C  C114  1  0.54588828  0.34437664  0.35159332  1  -0.085498  0  -0.239725  -0.413541  0  3.964979  0
C  C115  1  0.45704190  0.52707288  0.36341722  1  -0.029778  0  -0.239617  -0.414568  0  3.962566  0
O  O116  1  0.73722836  0.55803043  0.55407374  1  -1.258025  0  -0.23445  -0.597563  0  2.374262  0
O  O117  1  0.73728508  0.49606448  0.44196919  1  -1.257869  0  -0.234252  -0.597215  0  2.374095  0
O  O118  1  0.73726729  0.44592301  0.50394112  1  -1.25424  0  -0.234306  -0.59753  0  2.373841  0
O  O119  1  0.26682143  0.56073714  0.51071584  1  -1.256057  0  -0.235102  -0.59883  0  2.372524  0
O  O120  1  0.26682094  0.48927899  0.55000716  1  -1.252176  0  -0.235003  -0.598683  0  2.372516  0
O  O121  1  0.26681455  0.44999835  0.43926297  1  -1.251538  0  -0.234941  -0.598567  0  2.372804  0
O  O122  1  0.73732918  0.17064108  0.89137222  1  -1.257407  0  -0.234723  -0.597785  0  2.3743  0
O  O123  1  0.73737738  0.22072687  0.82935627  1  -1.254377  0  -0.234649  -0.597769  0  2.374157  0
O  O124  1  0.73735294  0.10862509  0.77927518  1  -1.257778  0  -0.234673  -0.597744  0  2.374404  0
O  O125  1  0.26694335  0.21669424  0.89405763  1  -1.251538  0  -0.235038  -0.598676  0  2.372586  0
O  O126  1  0.26693394  0.10593882  0.82264369  1  -1.256729  0  -0.234879  -0.59852  0  2.372505  0
O  O127  1  0.26698259  0.17735854  0.78330226  1  -1.251107  0  -0.234787  -0.598439  0  2.372695  0
