# generated using pymatgen
data_Zn2H33C33N2ClO8
_symmetry_space_group_name_H-M   'P 1'
_cell_length_a   10.03689021
_cell_length_b   10.98162683
_cell_length_c   26.08603378
_cell_angle_alpha   90.14650044
_cell_angle_beta   90.57085041
_cell_angle_gamma   89.84022590
_symmetry_Int_Tables_number   1
_chemical_formula_structural   Zn2H33C33N2ClO8
_chemical_formula_sum   'Zn4 H66 C66 N4 Cl2 O16'
_cell_volume   2875.07563568
_cell_formula_units_Z   2
loop_
 _symmetry_equiv_pos_site_id
 _symmetry_equiv_pos_as_xyz
  1  'x, y, z'
loop_
 _atom_site_type_symbol
 _atom_site_label
 _atom_site_symmetry_multiplicity
 _atom_site_fract_x
 _atom_site_fract_y
 _atom_site_fract_z
 _atom_site_occupancy
 _atom_site_pbe_bader_charge
 _atom_site_pbe_bader_spin_density
 _atom_site_pbe_cm5_charge
 _atom_site_pbe_ddec_charge
 _atom_site_pbe_ddec_spin_density
 _atom_site_pbe_ddec_sum_bond_order
 _atom_site_pbe_magmom
Zn  Zn0  1  0.66428510  0.48725112  0.49878862  1  1.299814  0  0.677333  0.84953  0  2.306498  0
Zn  Zn1  1  0.36698656  0.48663383  0.49688762  1  1.296398  0  0.680121  0.851115  0  2.317831  0
Zn  Zn2  1  0.33572781  0.48838418  0.08330119  1  1.297381  0  0.67621  0.848464  0  2.301986  0
Zn  Zn3  1  0.63286664  0.48711347  0.08337333  1  1.29444  0  0.680029  0.85097  0  2.323973  0
H  H4  1  0.71568098  0.54156481  0.66741402  1  0.095317  0  0.105551  0.120073  0  1.013135  0
H  H5  1  0.28576780  0.54590925  0.91414898  1  0.105364  0  0.105619  0.120472  0  1.013265  0
H  H6  1  0.65870133  0.35514768  0.92743036  1  0.10433  0  0.109269  0.1168  0  0.992392  0
H  H7  1  0.67344872  0.34657881  0.83221370  1  0.094752  0  0.103235  0.108934  0  0.991382  0
H  H8  1  0.33992463  0.35756036  0.65317545  1  0.083649  0  0.109181  0.116788  0  0.992974  0
H  H9  1  0.32390393  0.34973664  0.74834536  1  0.05416  0  0.103207  0.109415  0  0.990781  0
H  H10  1  0.91284872  0.24766505  0.42555085  1  0.043264  0  0.102002  0.143472  0  0.982865  0
H  H11  1  0.76432091  0.33169181  0.43633810  1  0.09923  0  0.101665  0.154722  0  1.056213  0
H  H12  1  0.87396015  0.37562224  0.38681989  1  0.047588  0  0.103281  0.147589  0  0.986679  0
H  H13  1  0.10155427  0.60806060  0.61132438  1  0.055663  0  0.100177  0.143191  0  0.991291  0
H  H14  1  0.25517964  0.55715591  0.58502772  1  0.127681  0  0.101422  0.159084  0  1.047551  0
H  H15  1  0.18836436  0.70009058  0.56675456  1  0.098878  0  0.104625  0.155288  0  0.999509  0
H  H16  1  0.10004819  0.34894817  0.38545240  1  0.036169  0  0.096493  0.133141  0  1.006087  0
H  H17  1  0.25603289  0.38352556  0.41511294  1  0.136867  0  0.105281  0.166729  0  1.036439  0
H  H18  1  0.16722040  0.25234734  0.43379493  1  0.100575  0  0.107914  0.160653  0  0.965217  0
H  H19  1  0.94055701  0.72737849  0.57084242  1  0.021122  0  0.101411  0.144393  0  0.987137  0
H  H20  1  0.78255424  0.67539019  0.54814834  1  0.104672  0  0.104195  0.169285  0  1.037617  0
H  H21  1  0.85895142  0.60553017  0.60214034  1  0.056797  0  0.102139  0.149539  0  0.994686  0
H  H22  1  0.46747866  0.11986382  0.61973638  1  0.052384  0  0.08921  0.120854  0  0.999054  0
H  H23  1  0.39875521  0.22902035  0.57675834  1  0.055885  0  0.088942  0.13234  0  1.045487  0
H  H24  1  0.30300848  0.10250876  0.59632789  1  0.022083  0  0.088986  0.120982  0  0.998201  0
H  H25  1  0.71035479  0.87824371  0.40433118  1  0.021192  0  0.089495  0.121429  0  0.997004  0
H  H26  1  0.61994746  0.74887108  0.42343699  1  0.074899  0  0.090511  0.13292  0  1.050833  0
H  H27  1  0.54783124  0.85488826  0.37987941  1  0.020169  0  0.089436  0.121935  0  0.998677  0
H  H28  1  0.29677022  0.88399828  0.59673875  1  0.042897  0  0.0896  0.119099  0  1.000974  0
H  H29  1  0.42261874  0.77103214  0.59184718  1  0.038867  0  0.092384  0.133583  0  1.009925  0
H  H30  1  0.45328891  0.90811120  0.62616623  1  0.035921  0  0.091746  0.124666  0  0.998645  0
H  H31  1  0.55713638  0.06735591  0.37337010  1  0.051655  0  0.09029  0.120749  0  1.002318  0
H  H32  1  0.58555821  0.20470946  0.40774623  1  0.044439  0  0.093022  0.134883  0  1.007309  0
H  H33  1  0.71276818  0.09298057  0.40341154  1  0.013403  0  0.090003  0.120872  0  1.000189  0
H  H34  1  0.80408595  0.70146636  0.32902846  1  0.03338  0  0.089945  0.122029  0  1.003944  0
H  H35  1  0.77136505  0.59239500  0.37735975  1  0.114184  0  0.092284  0.143927  0  1.061707  0
H  H36  1  0.84026214  0.54681459  0.31750508  1  0.022216  0  0.084428  0.113786  0  1.011857  0
H  H37  1  0.20047793  0.70382969  0.25379428  1  0.022469  0  0.089286  0.120643  0  1.006459  0
H  H38  1  0.23447321  0.59890642  0.20360612  1  0.088373  0  0.09191  0.143108  0  1.055783  0
H  H39  1  0.16456912  0.54834287  0.26225409  1  0.019563  0  0.08522  0.115091  0  1.010257  0
H  H40  1  0.80589671  0.55632881  0.22332360  1  0.024054  0  0.087648  0.123298  0  1.011584  0
H  H41  1  0.71241079  0.67114016  0.19226778  1  0.072083  0  0.093436  0.14229  0  1.0103  0
H  H42  1  0.79605509  0.70243919  0.25130308  1  0.022543  0  0.08523  0.113237  0  1.024935  0
H  H43  1  0.19699257  0.55791622  0.35673212  1  0.037659  0  0.088068  0.123643  0  1.010247  0
H  H44  1  0.29203017  0.66840757  0.38994053  1  0.094712  0  0.093204  0.141433  0  1.012348  0
H  H45  1  0.21053239  0.70585710  0.33118192  1  0.03309  0  0.085081  0.112833  0  1.022587  0
H  H46  1  0.08944099  0.24756853  0.15483799  1  0.049957  0  0.102162  0.144401  0  0.980396  0
H  H47  1  0.23606671  0.33517803  0.14644927  1  0.135155  0  0.101596  0.155364  0  1.055687  0
H  H48  1  0.12146016  0.37494146  0.19497646  1  0.043179  0  0.102963  0.146441  0  0.986343  0
H  H49  1  0.90009580  0.60821799  0.96996036  1  0.042177  0  0.100108  0.142657  0  0.991541  0
H  H50  1  0.74620798  0.55672490  0.99552920  1  0.121293  0  0.101702  0.159374  0  1.044423  0
H  H51  1  0.81086074  0.69991959  0.01433420  1  0.067872  0  0.104872  0.156199  0  0.996654  0
H  H52  1  0.89834590  0.34615570  0.19474000  1  0.041206  0  0.096518  0.132888  0  1.007497  0
H  H53  1  0.74287257  0.38229073  0.16488111  1  0.122899  0  0.105282  0.167724  0  1.030364  0
H  H54  1  0.83218024  0.25139302  0.14546779  1  0.099769  0  0.108165  0.16097  0  0.964943  0
H  H55  1  0.05843679  0.72899762  0.01186725  1  0.046802  0  0.101214  0.144604  0  0.986411  0
H  H56  1  0.21636047  0.67741449  0.03509189  1  0.139239  0  0.103892  0.168354  0  1.036788  0
H  H57  1  0.14260135  0.60797874  0.98042181  1  0.068838  0  0.102269  0.150481  0  0.994807  0
H  H58  1  0.51911329  0.12068175  0.96144972  1  0.042164  0  0.089447  0.121378  0  0.996968  0
H  H59  1  0.59400134  0.22800404  0.00376239  1  0.070356  0  0.08927  0.132625  0  1.045079  0
H  H60  1  0.68551878  0.09994684  0.98225734  1  0.047701  0  0.089104  0.121042  0  0.998367  0
H  H61  1  0.29761174  0.88070629  0.18029623  1  0.024156  0  0.089683  0.121856  0  0.997064  0
H  H62  1  0.38925587  0.75177229  0.16080335  1  0.040033  0  0.090458  0.132605  0  1.051488  0
H  H63  1  0.46255203  0.86065713  0.20286041  1  0.039837  0  0.08955  0.122156  0  0.997655  0
H  H64  1  0.69367549  0.88136860  0.98291103  1  0.015984  0  0.089842  0.119457  0  1.000726  0
H  H65  1  0.56713677  0.77021847  0.98862237  1  0.031131  0  0.091789  0.132997  0  1.010419  0
H  H66  1  0.53586995  0.90780101  0.95482854  1  0.054792  0  0.091366  0.123881  0  0.999814  0
H  H67  1  0.45286380  0.07348066  0.20867871  1  0.026394  0  0.090297  0.121092  0  1.000758  0
H  H68  1  0.41814922  0.20872331  0.17388018  1  0.001884  0  0.093278  0.134884  0  1.007268  0
H  H69  1  0.29376874  0.09583303  0.18091823  1  0.015936  0  0.089532  0.120398  0  0.999662  0
C  C70  1  0.49801595  0.72450880  0.50467626  1  1.560446  0  0.221159  0.616843  0  4.158082  0
C  C71  1  0.53763508  0.46074870  0.59722120  1  1.579568  0  0.218705  0.589875  0  4.172773  0
C  C72  1  0.50456758  0.25071072  0.49364963  1  1.583789  0  0.220469  0.618036  0  4.161486  0
C  C73  1  0.52124643  0.53512723  0.39938834  1  1.537912  0  0.219458  0.594259  0  4.144695  0
C  C74  1  0.49994131  0.72528980  0.07710197  1  1.568839  0  0.220871  0.615683  0  4.157585  0
C  C75  1  0.46390020  0.46216411  0.98390905  1  1.58459  0  0.217948  0.588603  0  4.175821  0
C  C76  1  0.49185818  0.25169437  0.08730472  1  1.56743  0  0.220294  0.616715  0  4.16851  0
C  C77  1  0.48291674  0.53571417  0.18188324  1  1.545595  0  0.218437  0.592665  0  4.147251  0
C  C78  1  0.94404104  0.41922567  0.46264404  1  0.477465  0  0.133038  0.226197  0  3.895686  0
C  C79  1  0.08763783  0.54646256  0.53356070  1  0.553363  0  0.133275  0.22965  0  3.898714  0
C  C80  1  0.08468448  0.41933102  0.46185571  1  0.555436  0  0.13351  0.227931  0  3.89743  0
C  C81  1  0.94781445  0.55834455  0.53026262  1  0.460284  0  0.134563  0.231528  0  3.89343  0
C  C82  1  0.50491921  0.11400587  0.49685442  1  -0.044926  0  -0.021487  -0.145159  0  3.951294  0
C  C83  1  0.50299835  0.86137897  0.50248484  1  -0.034609  0  -0.02273  -0.151621  0  3.94984  0
C  C84  1  0.45466519  0.05789840  0.54104283  1  0.051467  0  -0.013644  0.085962  0  3.942881  0
C  C85  1  0.55548863  0.91778484  0.45868001  1  0.037555  0  -0.013671  0.085577  0  3.947002  0
C  C86  1  0.45406795  0.92988731  0.54389674  1  -0.045241  0  -0.015344  0.078877  0  3.956402  0
C  C87  1  0.55482505  0.04577346  0.45566738  1  -0.03915  0  -0.016047  0.077118  0  3.95826  0
C  C88  1  0.52871344  0.45052091  0.65438328  1  -0.049291  0  -0.013672  -0.010153  0  3.974094  0
C  C89  1  0.47145795  0.45159111  0.92668903  1  -0.047188  0  -0.013998  -0.010703  0  3.974302  0
C  C90  1  0.62960879  0.49973695  0.68520600  1  -0.015204  0  -0.091451  -0.163129  0  3.970162  0
C  C91  1  0.61791436  0.49877185  0.73839651  1  0.031195  0  0.014739  0.108449  0  4.011159  0
C  C92  1  0.37096448  0.50249059  0.89612738  1  0.008787  0  -0.091277  -0.164048  0  3.971036  0
C  C93  1  0.38194186  0.50093216  0.84291019  1  0.027933  0  0.0142  0.108897  0  4.010413  0
C  C94  1  0.58084041  0.39524950  0.90343942  1  -0.045727  0  -0.085968  -0.096879  0  3.983593  0
C  C95  1  0.58899849  0.39133355  0.85034322  1  -0.015679  0  -0.089218  -0.118378  0  4.007719  0
C  C96  1  0.41810816  0.39641322  0.67734884  1  0.076191  0  -0.085798  -0.097324  0  3.984845  0
C  C97  1  0.40925646  0.39287828  0.73043596  1  -0.030779  0  -0.089338  -0.119276  0  4.005634  0
C  C98  1  0.50718109  0.44556330  0.76232770  1  0.04098  0  -0.012755  0.016541  0  3.990547  0
C  C99  1  0.49155730  0.44571014  0.81870562  1  0.00186  0  -0.012464  0.016291  0  3.992775  0
C  C100  1  0.51471338  0.57869379  0.34444303  1  -0.0279  0  -0.016299  -0.150394  0  3.885177  0
C  C101  1  0.48996229  0.57914192  0.23692640  1  -0.057482  0  -0.015901  -0.149684  0  3.887535  0
C  C102  1  0.63003280  0.59351466  0.31398184  1  -0.027482  0  -0.008465  0.091557  0  3.89888  0
C  C103  1  0.37465585  0.59441416  0.26741739  1  0.002608  0  -0.008119  0.092646  0  3.899329  0
C  C104  1  0.61669924  0.59995323  0.26010406  1  0.008482  0  -0.006538  0.09157  0  3.901478  0
C  C105  1  0.38792291  0.60012419  0.32129797  1  0.032683  0  -0.007192  0.09064  0  3.902852  0
C  C106  1  0.05559055  0.41976464  0.11881099  1  0.481616  0  0.133073  0.226409  0  3.893412  0
C  C107  1  0.91245641  0.54667559  0.04764178  1  0.537906  0  0.134079  0.22959  0  3.897701  0
C  C108  1  0.91489756  0.41896892  0.11890045  1  0.534249  0  0.133626  0.228511  0  3.893857  0
C  C109  1  0.05201102  0.55939433  0.05166168  1  0.476175  0  0.13438  0.231934  0  3.893321  0
C  C110  1  0.49251412  0.11490211  0.08443831  1  -0.030698  0  -0.020891  -0.142511  0  3.954559  0
C  C111  1  0.49513634  0.86218249  0.07932701  1  -0.025125  0  -0.022848  -0.152376  0  3.950332  0
C  C112  1  0.53919902  0.05774508  0.03976200  1  -0.05642  0  -0.014913  0.083385  0  3.948443  0
C  C113  1  0.44692707  0.91979445  0.12380483  1  -0.050231  0  -0.013883  0.086508  0  3.947594  0
C  C114  1  0.54011780  0.92968377  0.03713005  1  0.045816  0  -0.014984  0.079169  0  3.956407  0
C  C115  1  0.44699541  0.04783750  0.12648272  1  0.023255  0  -0.016363  0.075361  0  3.960535  0
C  C116  1  0.86895814  0.33938895  0.42605201  1  -0.035299  0  -0.237008  -0.449263  0  3.94428  0
C  C117  1  0.16222250  0.60592270  0.57660435  1  -0.117282  0  -0.241733  -0.463013  0  3.945513  0
C  C118  1  0.15618864  0.34785597  0.42173066  1  -0.126155  0  -0.239701  -0.45779  0  3.948271  0
C  C119  1  0.87828944  0.64667080  0.56455608  1  -0.012477  0  -0.240312  -0.456098  0  3.936857  0
C  C120  1  0.40367942  0.13174754  0.58550401  1  -0.068581  0  -0.243638  -0.402705  0  3.980056  0
C  C121  1  0.61052462  0.84556182  0.41454747  1  -0.052763  0  -0.245019  -0.401745  0  3.971802  0
C  C122  1  0.40462180  0.86942361  0.59186981  1  -0.076849  0  -0.238125  -0.396191  0  3.982193  0
C  C123  1  0.60466915  0.10648813  0.40781401  1  -0.075067  0  -0.237974  -0.392932  0  3.977367  0
C  C124  1  0.76871549  0.60821018  0.33622357  1  -0.100187  0  -0.250339  -0.415431  0  3.9862  0
C  C125  1  0.23639634  0.61132839  0.24498720  1  -0.059745  0  -0.249337  -0.413814  0  3.985085  0
C  C126  1  0.73853251  0.63397904  0.22982270  1  -0.052205  0  -0.246755  -0.399716  0  3.985926  0
C  C127  1  0.26617493  0.63450108  0.35176286  1  -0.106  0  -0.246184  -0.398311  0  3.983631  0
C  C128  1  0.13049635  0.34018823  0.15554750  1  -0.06492  0  -0.235926  -0.448197  0  3.943436  0
C  C129  1  0.83843108  0.60587813  0.00440545  1  -0.054676  0  -0.241092  -0.461266  0  3.943341  0
C  C130  1  0.84292281  0.34646494  0.15830522  1  -0.114175  0  -0.239223  -0.457877  0  3.945368  0
C  C131  1  0.12149746  0.64853460  0.01807462  1  -0.10452  0  -0.239465  -0.455956  0  3.937552  0
C  C132  1  0.58659963  0.13090940  0.99473972  1  -0.097313  0  -0.243733  -0.40248  0  3.978495  0
C  C133  1  0.39722718  0.84890832  0.16903732  1  -0.045862  0  -0.244516  -0.40232  0  3.973281  0
C  C134  1  0.58599026  0.86836168  0.98861941  1  -0.045855  0  -0.238634  -0.395068  0  3.981989  0
C  C135  1  0.40100013  0.11028451  0.17471536  1  0.005103  0  -0.237204  -0.392058  0  3.974394  0
N  N136  1  0.87764287  0.49097723  0.49600282  1  -1.205915  0  -0.290164  -0.267586  0  3.389273  0
N  N137  1  0.15430954  0.48106812  0.49807588  1  -1.22539  0  -0.291066  -0.267083  0  3.3943  0
N  N138  1  0.12210451  0.49218182  0.08599848  1  -1.205838  0  -0.289544  -0.268243  0  3.386762  0
N  N139  1  0.84552976  0.48059997  0.08259087  1  -1.208635  0  -0.291358  -0.268208  0  3.391796  0
Cl  Cl140  1  0.74197106  0.57060892  0.77416822  1  -0.222697  0  -0.029031  -0.107137  0  1.448143  0
Cl  Cl141  1  0.25831339  0.57434709  0.80740726  1  -0.223571  0  -0.029377  -0.107548  0  1.446768  0
O  O142  1  0.60916063  0.66849328  0.50687821  1  -1.184019  0  -0.310005  -0.555917  0  2.383406  0
O  O143  1  0.38385105  0.67405198  0.50361426  1  -1.158009  0  -0.312644  -0.546127  0  2.302722  0
O  O144  1  0.42720897  0.45778007  0.57260710  1  -1.189126  0  -0.311838  -0.56509  0  2.398675  0
O  O145  1  0.65243762  0.47293483  0.57793894  1  -1.159108  0  -0.31047  -0.532057  0  2.318992  0
O  O146  1  0.39154342  0.30206780  0.48877575  1  -1.165278  0  -0.311692  -0.54559  0  2.344942  0
O  O147  1  0.61693344  0.30446977  0.49633083  1  -1.174428  0  -0.315282  -0.556476  0  2.332109  0
O  O148  1  0.63395748  0.51726354  0.42135734  1  -1.171599  0  -0.313105  -0.548136  0  2.399894  0
O  O149  1  0.41077522  0.51167855  0.42083648  1  -1.176642  0  -0.3091  -0.54426  0  2.429881  0
O  O150  1  0.38865661  0.66973218  0.07827480  1  -1.180782  0  -0.311061  -0.556429  0  2.383025  0
O  O151  1  0.61385336  0.67442631  0.07468785  1  -1.158365  0  -0.311711  -0.545235  0  2.308769  0
O  O152  1  0.57481170  0.45484103  0.00808575  1  -1.176512  0  -0.311715  -0.563363  0  2.401848  0
O  O153  1  0.35023251  0.47873489  0.00364645  1  -1.164014  0  -0.309545  -0.533306  0  2.320202  0
O  O154  1  0.60411708  0.30329348  0.09332101  1  -1.167195  0  -0.312361  -0.548367  0  2.344629  0
O  O155  1  0.37925025  0.30504824  0.08328724  1  -1.173307  0  -0.315045  -0.552854  0  2.328485  0
O  O156  1  0.37031644  0.50977659  0.16143729  1  -1.17672  0  -0.313571  -0.549419  0  2.389968  0
O  O157  1  0.59322601  0.52031758  0.15895198  1  -1.179345  0  -0.309055  -0.543787  0  2.436548  0
