# generated using pymatgen
data_AlH18C27N13O6
_symmetry_space_group_name_H-M   'P 1'
_cell_length_a   3.87291317
_cell_length_b   18.12824311
_cell_length_c   18.22596962
_cell_angle_alpha   119.82849840
_cell_angle_beta   91.91853466
_cell_angle_gamma   90.40596665
_symmetry_Int_Tables_number   1
_chemical_formula_structural   AlH18C27N13O6
_chemical_formula_sum   'Al1 H18 C27 N13 O6'
_cell_volume   1109.06333212
_cell_formula_units_Z   1
loop_
 _symmetry_equiv_pos_site_id
 _symmetry_equiv_pos_as_xyz
  1  'x, y, z'
loop_
 _atom_site_type_symbol
 _atom_site_label
 _atom_site_symmetry_multiplicity
 _atom_site_fract_x
 _atom_site_fract_y
 _atom_site_fract_z
 _atom_site_occupancy
 _atom_site_pbe_bader_charge
 _atom_site_pbe_bader_spin_density
 _atom_site_pbe_cm5_charge
 _atom_site_pbe_ddec_charge
 _atom_site_pbe_ddec_spin_density
 _atom_site_pbe_ddec_sum_bond_order
 _atom_site_pbe_magmom
Al  Al0  1  0.00778626  0.00042154  0.50033240  1  2.499997  0  0.41737  1.574827  0  2.582674  0
H  H1  1  0.77791469  0.30372854  0.40489908  1  0.080414  0  0.105229  0.125641  0  1.006859  0
H  H2  1  0.77951716  0.09456392  0.89948438  1  0.092812  0  0.104729  0.126369  0  1.007834  0
H  H3  1  0.72000422  0.60526096  0.19436478  1  0.135034  0  0.105224  0.124983  0  1.009555  0
H  H4  1  0.28457559  0.30330855  0.89406934  1  0.093331  0  0.105245  0.125316  0  1.008131  0
H  H5  1  0.25962959  0.59886221  0.40243244  1  0.095807  0  0.104787  0.124848  0  1.010383  0
H  H6  1  0.24620913  0.09192075  0.19348843  1  0.088537  0  0.104953  0.12521  0  1.00794  0
H  H7  1  0.10875834  0.97661129  0.30368736  1  0.480877  0  0.299542  0.307803  0  0.98265  0
H  H8  1  0.01452389  0.98502793  0.21538997  1  0.446201  0  0.309326  0.309735  0  0.930255  0
H  H9  1  0.89964847  0.19642832  0.52436065  1  0.476996  0  0.299655  0.307931  0  0.983103  0
H  H10  1  0.00147339  0.28320537  0.51404924  1  0.440229  0  0.309341  0.308922  0  0.931214  0
H  H11  1  0.13168079  0.82428870  0.52131895  1  0.477259  0  0.300408  0.30912  0  0.979958  0
H  H12  1  0.04803400  0.72594062  0.51044169  1  0.429946  0  0.310119  0.310641  0  0.92829  0
H  H13  1  0.84086638  0.83240003  0.30382942  1  0.493666  0  0.300205  0.308469  0  0.982141  0
H  H14  1  0.92294005  0.73660500  0.21610542  1  0.451877  0  0.309593  0.309725  0  0.93024  0
H  H15  1  0.16064129  0.19536692  0.66799857  1  0.474537  0  0.300179  0.308372  0  0.983594  0
H  H16  1  0.07138562  0.28219786  0.76365797  1  0.43992  0  0.309133  0.309231  0  0.930278  0
H  H17  1  0.90739857  0.97804080  0.67551427  1  0.478299  0  0.300231  0.308791  0  0.979764  0
H  H18  1  0.99967922  0.98806833  0.77309247  1  0.447762  0  0.309729  0.309747  0  0.929596  0
C  C19  1  0.50246207  0.06774955  0.43328556  1  1.451281  0  0.259564  0.654793  0  4.035217  0
C  C20  1  0.52832868  0.06701507  0.63387346  1  1.523839  0  0.259704  0.654105  0  4.038911  0
C  C21  1  0.49331639  0.86627918  0.43252835  1  1.433782  0  0.261103  0.656698  0  4.037853  0
C  C22  1  0.66057165  0.24018214  0.37722037  1  0.047532  0  -0.113781  -0.273392  0  3.957792  0
C  C23  1  0.51251217  0.20161338  0.29530554  1  0.002845  0  -0.00308  0.060537  0  4.054335  0
C  C24  1  0.67187652  0.12204698  0.86273229  1  0.067807  0  -0.113532  -0.275495  0  3.955728  0
C  C25  1  0.53116849  0.20269925  0.90449764  1  -0.030413  0  -0.004065  0.058557  0  4.051424  0
C  C26  1  0.49107732  0.59431289  0.29463216  1  -0.011069  0  -0.003541  0.059601  0  4.049814  0
C  C27  1  0.61845768  0.63962690  0.25746933  1  0.065359  0  -0.113294  -0.272108  0  3.953653  0
C  C28  1  0.39383154  0.24036508  0.85968738  1  0.055715  0  -0.112895  -0.271537  0  3.954483  0
C  C29  1  0.37904960  0.19565550  0.77099887  1  0.369634  0  0.106831  0.317341  0  4.08061  0
C  C30  1  0.53389209  0.11382431  0.72638919  1  -0.016743  0  -0.036855  -0.287602  0  3.855539  0
C  C31  1  0.68945979  0.07845796  0.77429374  1  0.398351  0  0.108224  0.318486  0  4.08264  0
C  C32  1  0.63247155  0.72875244  0.30280447  1  0.35936  0  0.107388  0.318492  0  4.080951  0
C  C33  1  0.48783686  0.77332203  0.38490588  1  0.054827  0  -0.036813  -0.287648  0  3.85663  0
C  C34  1  0.34171089  0.72499139  0.41977433  1  0.366838  0  0.10843  0.318759  0  4.082153  0
C  C35  1  0.35938882  0.63604670  0.37536519  1  0.067008  0  -0.11371  -0.273576  0  3.954899  0
C  C36  1  0.36177785  0.12014083  0.25736919  1  -0.008991  0  -0.114095  -0.274587  0  3.957548  0
C  C37  1  0.34148399  0.07694974  0.30309475  1  0.402807  0  0.108013  0.318664  0  4.083312  0
C  C38  1  0.50555315  0.11350171  0.38607640  1  0.00431  0  -0.037456  -0.288424  0  3.857176  0
C  C39  1  0.67421829  0.19571826  0.42184806  1  0.447665  0  0.10746  0.317918  0  4.082734  0
C  C40  1  0.50583317  0.37727387  0.25370600  1  1.541089  0  0.355179  0.503054  0  4.08618  0
C  C41  1  0.52039842  0.24304591  0.12015527  1  1.544369  0  0.355173  0.503888  0  4.083034  0
C  C42  1  0.51346985  0.24836458  0.24828524  1  1.11172  0  0.26328  0.397669  0  4.008791  0
C  C43  1  0.49780220  0.50062410  0.24794089  1  1.004762  0  0.262892  0.396983  0  4.009417  0
C  C44  1  0.51159855  0.37771112  0.12002039  1  1.491784  0  0.355185  0.502604  0  4.087792  0
C  C45  1  0.52578973  0.24917835  0.99769550  1  1.051112  0  0.263061  0.397917  0  4.007987  0
N  N46  1  0.51267254  0.33265465  0.16462094  1  -1.199332  0  -0.194173  -0.243234  0  3.555158  0
N  N47  1  0.51282698  0.20137254  0.16325294  1  -1.224505  0  -0.32047  -0.442339  0  3.200328  0
N  N48  1  0.51440412  0.33383367  0.29505247  1  -1.146547  0  -0.320648  -0.441458  0  3.203286  0
N  N49  1  0.49049966  0.46185074  0.29462199  1  -1.170979  0  -0.3199  -0.441374  0  3.20578  0
N  N50  1  0.51180871  0.46249425  0.16312631  1  -1.191645  0  -0.319466  -0.440006  0  3.205191  0
N  N51  1  0.53531130  0.20200088  0.03604727  1  -1.215033  0  -0.320536  -0.443027  0  3.203519  0
N  N52  1  0.51058964  0.33448869  0.03570150  1  -1.155523  0  -0.319288  -0.439487  0  3.204696  0
N  N53  1  0.18339151  0.99754287  0.26413490  1  -1.251213  0  -0.600173  -0.622544  0  3.308425  0
N  N54  1  0.82986954  0.23554080  0.50175185  1  -1.257292  0  -0.60086  -0.622524  0  3.306523  0
N  N55  1  0.20600340  0.76338644  0.49874457  1  -1.23473  0  -0.598954  -0.621526  0  3.308956  0
N  N56  1  0.76526330  0.77085143  0.26422492  1  -1.270837  0  -0.60015  -0.622628  0  3.306433  0
N  N57  1  0.23492924  0.23482412  0.72960754  1  -1.241192  0  -0.600137  -0.622277  0  3.304737  0
N  N58  1  0.83533445  0.99970053  0.73578464  1  -1.262214  0  -0.59913  -0.620416  0  3.308016  0
O  O59  1  0.26989936  0.90589639  0.48947089  1  -1.262742  0  -0.244268  -0.60859  0  2.392522  0
O  O60  1  0.26204110  0.01128518  0.41692783  1  -1.257448  0  -0.24397  -0.606801  0  2.399371  0
O  O61  1  0.29254849  0.08307468  0.59224853  1  -1.273833  0  -0.245666  -0.615451  0  2.42404  0
O  O62  1  0.72380772  0.90813718  0.41712964  1  -1.270103  0  -0.24572  -0.615597  0  2.416932  0
O  O63  1  0.75577306  0.01033666  0.59446941  1  -1.265015  0  -0.24378  -0.605518  0  2.386676  0
O  O64  1  0.74168697  0.08424776  0.49097299  1  -1.269897  0  -0.246078  -0.612585  0  2.408953  0
