# generated using pymatgen
data_ZnH21C20NO7
_symmetry_space_group_name_H-M   'P 1'
_cell_length_a   9.94920156
_cell_length_b   10.90330682
_cell_length_c   17.34647916
_cell_angle_alpha   86.07331389
_cell_angle_beta   87.45924616
_cell_angle_gamma   90.17192708
_symmetry_Int_Tables_number   1
_chemical_formula_structural   ZnH21C20NO7
_chemical_formula_sum   'Zn2 H42 C40 N2 O14'
_cell_volume   1875.43484785
_cell_formula_units_Z   2
loop_
 _symmetry_equiv_pos_site_id
 _symmetry_equiv_pos_as_xyz
  1  'x, y, z'
loop_
 _atom_site_type_symbol
 _atom_site_label
 _atom_site_symmetry_multiplicity
 _atom_site_fract_x
 _atom_site_fract_y
 _atom_site_fract_z
 _atom_site_occupancy
 _atom_site_pbe_bader_charge
 _atom_site_pbe_bader_spin_density
 _atom_site_pbe_cm5_charge
 _atom_site_pbe_ddec_charge
 _atom_site_pbe_ddec_spin_density
 _atom_site_pbe_ddec_sum_bond_order
 _atom_site_pbe_magmom
Zn  Zn0  1  0.64026888  0.49771356  0.50228191  1  1.313352  0  0.678455  0.876003  0  2.331199  0
Zn  Zn1  1  0.34628988  0.49315760  0.50501844  1  1.317312  0  0.679308  0.879881  0  2.296405  0
H  H2  1  0.34962971  0.30595287  0.29527674  1  0.086135  0  0.109147  0.125556  0  1.004379  0
H  H3  1  0.64463056  0.36941281  0.73723184  1  0.09452  0  0.104313  0.118138  0  1.053198  0
H  H4  1  0.30111220  0.60237657  0.75691076  1  0.068713  0  0.100977  0.105856  0  1.006673  0
H  H5  1  0.70492766  0.52405629  0.23973315  1  0.071877  0  0.097848  0.099902  0  1.037352  0
H  H6  1  0.45961420  0.53731617  0.01215428  1  0.030877  0  0.095791  0.092708  0  1.001649  0
H  H7  1  0.51318730  0.25983007  0.01477920  1  0.069826  0  0.106218  0.115073  0  0.986755  0
H  H8  1  0.69245257  0.47840405  0.10046030  1  0.068395  0  0.098113  0.100034  0  1.001557  0
H  H9  1  0.30945031  0.57924155  0.90109541  1  0.05202  0  0.097668  0.097904  0  0.997947  0
H  H10  1  0.26839050  0.87974021  0.52672134  1  0.106521  0  0.102901  0.107713  0  0.99557  0
H  H11  1  0.69560284  0.11077736  0.46527886  1  0.077702  0  0.10004  0.099076  0  1.025223  0
H  H12  1  0.27899899  0.10896723  0.53963580  1  0.106737  0  0.101642  0.108223  0  1.009158  0
H  H13  1  0.68929292  0.88055334  0.46147481  1  0.09742  0  0.10245  0.107839  0  1.019198  0
H  H14  1  0.82102734  0.34612842  0.80959868  1  0.041362  0  0.099368  0.05954  0  0.975413  0
H  H15  1  0.72849885  0.20605047  0.80890048  1  0.047563  0  0.098774  0.056606  0  0.989242  0
H  H16  1  0.81909157  0.13500680  0.93787676  1  0.026594  0  0.094411  0.128671  0  0.99019  0
H  H17  1  0.95204442  0.16990751  0.86755807  1  0.027734  0  0.092748  0.123384  0  1.006452  0
H  H18  1  0.91100082  0.27540197  0.93886130  1  0.044037  0  0.093151  0.126066  0  0.996699  0
H  H19  1  0.17434714  0.37406584  0.13855482  1  0.038752  0  0.093338  0.04706  0  0.972794  0
H  H20  1  0.16285460  0.28168699  0.22768967  1  0.027634  0  0.095013  0.050034  0  0.981602  0
H  H21  1  0.09874177  0.09849397  0.15749361  1  0.062807  0  0.092389  0.125604  0  0.993871  0
H  H22  1  0.98602980  0.22236897  0.13789925  1  0.045575  0  0.094224  0.125394  0  0.997868  0
H  H23  1  0.11414136  0.18807409  0.06755356  1  0.023652  0  0.092734  0.126475  0  0.997012  0
H  H24  1  0.00290429  0.37247218  0.69628803  1  0.062407  0  0.096565  0.051828  0  1.024135  0
H  H25  1  0.15516498  0.46335842  0.69050745  1  0.091548  0  0.101704  0.073456  0  1.004356  0
H  H26  1  0.18032535  0.28522985  0.78595779  1  0.026904  0  0.094708  0.127424  0  0.997451  0
H  H27  1  0.13976345  0.18068045  0.71536963  1  0.043099  0  0.088744  0.117401  0  1.001367  0
H  H28  1  0.29079271  0.27013161  0.70372961  1  0.069032  0  0.098346  0.144142  0  0.990574  0
H  H29  1  0.87076590  0.60510660  0.30427041  1  0.06064  0  0.098886  0.055621  0  1.004575  0
H  H30  1  0.96461863  0.74276625  0.31681154  1  0.053067  0  0.103223  0.065853  0  0.997348  0
H  H31  1  0.74876883  0.85983655  0.32911113  1  0.026711  0  0.093963  0.128844  0  1.001384  0
H  H32  1  0.75770432  0.78615512  0.24075248  1  0.049589  0  0.094598  0.125854  0  0.99052  0
H  H33  1  0.65553382  0.72153667  0.32078539  1  0.064505  0  0.09645  0.142317  0  1.00443  0
H  H34  1  0.96964919  0.19746677  0.58580774  1  0.073085  0  0.100476  0.060545  0  1.004278  0
H  H35  1  0.82560944  0.21080516  0.52660756  1  0.057526  0  0.101535  0.067651  0  1.0134  0
H  H36  1  0.67449729  0.17672706  0.64706508  1  0.035563  0  0.099357  0.142491  0  0.989568  0
H  H37  1  0.77876835  0.04836108  0.63019390  1  0.073529  0  0.100045  0.137792  0  0.984167  0
H  H38  1  0.82024074  0.14856920  0.70250817  1  0.009414  0  0.087434  0.112546  0  1.026957  0
H  H39  1  0.08894323  0.54495167  0.28582038  1  0.017747  0  0.089701  0.03663  0  1.00992  0
H  H40  1  0.23133367  0.48613107  0.33708243  1  0.115778  0  0.100202  0.070856  0  1.049889  0
H  H41  1  0.35788892  0.68054584  0.30045259  1  0.050048  0  0.098172  0.143507  0  0.98542  0
H  H42  1  0.31046029  0.60720236  0.21703179  1  0.05614  0  0.092777  0.126475  0  1.006147  0
H  H43  1  0.22052628  0.73872131  0.24647378  1  0.013126  0  0.089813  0.119518  0  0.99854  0
C  C44  1  0.47757163  0.73048010  0.49164196  1  1.570078  0  0.213634  0.587271  0  4.182249  0
C  C45  1  0.49507594  0.25847323  0.51170041  1  1.55847  0  0.210975  0.582993  0  4.181582  0
C  C46  1  0.36195352  0.93124416  0.51479114  1  -0.056916  0  -0.086121  -0.101221  0  3.98271  0
C  C47  1  0.60353794  0.05879617  0.48065451  1  -0.022897  0  -0.088261  -0.100455  0  4.001683  0
C  C48  1  0.36746072  0.05775984  0.52139119  1  -0.077642  0  -0.087924  -0.100842  0  3.9844  0
C  C49  1  0.59960133  0.93201275  0.47709869  1  -0.044196  0  -0.088627  -0.108563  0  3.990874  0
C  C50  1  0.48846726  0.12239279  0.50454469  1  0.026521  0  -0.018767  -0.02832  0  3.965245  0
C  C51  1  0.47862607  0.86746998  0.49397413  1  -0.083699  0  -0.01283  -0.010613  0  3.952315  0
C  C52  1  0.06087670  0.42758969  0.54859765  1  1.161302  0  0.20885  0.244636  0  4.109047  0
C  C53  1  0.92338162  0.58267603  0.45130771  1  1.12757  0  0.219865  0.264391  0  4.069855  0
C  C54  1  0.91889518  0.42868940  0.55108718  1  1.142678  0  0.213338  0.256839  0  4.097442  0
C  C55  1  0.06474483  0.56823271  0.44139088  1  1.181844  0  0.214035  0.261765  0  4.074017  0
C  C56  1  0.52496632  0.45773527  0.35674210  1  1.577135  0  0.213299  0.585588  0  4.175146  0
C  C57  1  0.47502525  0.49908411  0.65261770  1  1.539759  0  0.213227  0.59053  0  4.165875  0
C  C58  1  0.52634605  0.41992803  0.27528601  1  0.008597  0  -0.020088  -0.011278  0  3.992148  0
C  C59  1  0.47217439  0.48491429  0.73934976  1  0.039628  0  -0.01838  0.000769  0  3.992196  0
C  C60  1  0.42471505  0.34299104  0.25215182  1  -0.041083  0  -0.096464  -0.218389  0  3.979121  0
C  C61  1  0.56985637  0.41095025  0.77482021  1  -0.036889  0  -0.109954  -0.250033  0  4.000417  0
C  C62  1  0.41964755  0.31522649  0.17497467  1  0.445448  0  0.077527  0.194511  0  4.055886  0
C  C63  1  0.57081623  0.39320815  0.85530589  1  0.441482  0  0.083792  0.209153  0  4.034465  0
C  C64  1  0.51435226  0.36671311  0.11896298  1  0.04278  0  -0.014463  0.023984  0  4.01026  0
C  C65  1  0.47574979  0.45454590  0.90226434  1  0.048572  0  -0.022766  0.014016  0  4.02136  0
C  C66  1  0.61795192  0.44042153  0.14372730  1  -0.116188  0  -0.097095  -0.131749  0  4.022506  0
C  C67  1  0.38094905  0.53023246  0.86495887  1  -0.108781  0  -0.097428  -0.129203  0  4.027929  0
C  C68  1  0.62517521  0.46598446  0.22093274  1  -0.020346  0  -0.099254  -0.123005  0  4.029332  0
C  C69  1  0.37601038  0.54393162  0.78473410  1  -0.002428  0  -0.102379  -0.132323  0  4.041296  0
C  C70  1  0.50277688  0.35161206  0.03574451  1  -0.071864  0  -0.088925  -0.115808  0  3.995267  0
C  C71  1  0.47995989  0.44967081  0.98667818  1  0.026416  0  -0.097024  -0.130959  0  4.035975  0
C  C72  1  0.77103900  0.27181584  0.84693650  1  0.418279  0  -0.066319  0.084129  0  3.926251  0
C  C73  1  0.86877258  0.20943315  0.90126096  1  -0.04423  0  -0.241561  -0.39604  0  3.982864  0
C  C74  1  0.18464385  0.27956051  0.16487725  1  0.419508  0  -0.066283  0.094608  0  3.933609  0
C  C75  1  0.09052826  0.19165580  0.12981224  1  -0.079756  0  -0.243015  -0.395461  0  3.986172  0
C  C76  1  0.11134634  0.37335137  0.68098776  1  0.351224  0  -0.065549  0.079327  0  3.858664  0
C  C77  1  0.18473596  0.27067249  0.72382780  1  -0.074736  0  -0.243331  -0.391121  0  3.96384  0
C  C78  1  0.86869013  0.69442454  0.33023880  1  0.386105  0  -0.06138  0.086781  0  3.877102  0
C  C79  1  0.75008652  0.77010610  0.30407642  1  -0.046357  0  -0.243279  -0.395058  0  3.957417  0
C  C80  1  0.86218776  0.22058674  0.58463986  1  0.358383  0  -0.066178  0.078133  0  3.864441  0
C  C81  1  0.77894722  0.14467876  0.64509332  1  -0.038777  0  -0.241307  -0.391176  0  3.9613  0
C  C82  1  0.17871360  0.56960183  0.31671369  1  0.340297  0  -0.070345  0.075101  0  3.878127  0
C  C83  1  0.27209241  0.65472476  0.26727062  1  -0.032289  0  -0.242338  -0.386258  0  3.95759  0
N  N84  1  0.85350772  0.50822420  0.50405230  1  -1.233006  0  -0.301672  -0.315751  0  3.473339  0
N  N85  1  0.13063410  0.49401315  0.49210497  1  -1.231897  0  -0.299119  -0.319846  0  3.455247  0
O  O86  1  0.58995375  0.67788502  0.50180523  1  -1.165145  0  -0.315361  -0.551294  0  2.381163  0
O  O87  1  0.38655084  0.31107105  0.53225544  1  -1.16836  0  -0.318927  -0.555546  0  2.38167  0
O  O88  1  0.36629912  0.67802802  0.48016383  1  -1.16245  0  -0.319596  -0.550468  0  2.342744  0
O  O89  1  0.60898078  0.31079280  0.49666808  1  -1.167051  0  -0.31279  -0.549431  0  2.35832  0
O  O90  1  0.63346686  0.49922684  0.38146053  1  -1.165177  0  -0.316244  -0.551877  0  2.326473  0
O  O91  1  0.36556643  0.52825831  0.62045352  1  -1.169313  0  -0.31798  -0.551816  0  2.307359  0
O  O92  1  0.41246071  0.44712954  0.39487977  1  -1.184472  0  -0.313041  -0.558624  0  2.388256  0
O  O93  1  0.58745063  0.47866976  0.61829984  1  -1.174326  0  -0.316896  -0.548351  0  2.366812  0
O  O94  1  0.66418391  0.32240769  0.89295323  1  -1.075628  0  -0.182307  -0.204998  0  2.554453  0
O  O95  1  0.32104948  0.23985256  0.14993469  1  -1.072937  0  -0.206768  -0.240085  0  2.490942  0
O  O96  1  0.13160673  0.35610382  0.59808324  1  -1.052229  0  -0.17349  -0.206648  0  2.576362  0
O  O97  1  0.85131791  0.66960616  0.41394194  1  -1.06927  0  -0.163931  -0.185598  0  2.552025  0
O  O98  1  0.84526217  0.35085886  0.59995219  1  -1.05798  0  -0.177917  -0.210038  0  2.524016  0
O  O99  1  0.13311597  0.63492743  0.38430881  1  -1.060339  0  -0.182589  -0.219773  0  2.537061  0
