# generated using pymatgen
data_AlH19C20N2O11F2
_symmetry_space_group_name_H-M   'P 1'
_cell_length_a   7.03486595
_cell_length_b   22.79791146
_cell_length_c   24.96902307
_cell_angle_alpha   90.00024271
_cell_angle_beta   89.99990559
_cell_angle_gamma   90.00000580
_symmetry_Int_Tables_number   1
_chemical_formula_structural   AlH19C20N2O11F2
_chemical_formula_sum   'Al4 H76 C80 N8 O44 F8'
_cell_volume   4004.53818870
_cell_formula_units_Z   4
loop_
 _symmetry_equiv_pos_site_id
 _symmetry_equiv_pos_as_xyz
  1  'x, y, z'
loop_
 _atom_site_type_symbol
 _atom_site_label
 _atom_site_symmetry_multiplicity
 _atom_site_fract_x
 _atom_site_fract_y
 _atom_site_fract_z
 _atom_site_occupancy
 _atom_site_pbe_bader_charge
 _atom_site_pbe_bader_spin_density
 _atom_site_pbe_cm5_charge
 _atom_site_pbe_ddec_charge
 _atom_site_pbe_ddec_spin_density
 _atom_site_pbe_ddec_sum_bond_order
 _atom_site_pbe_magmom
Al  Al0  1  0.23928714  0.75222212  0.25075243  1  2.506168  0  0.41807  1.637323  0  2.520361  0
Al  Al1  1  0.76070843  0.24777751  0.75075476  1  2.506021  0  0.418117  1.637175  0  2.520266  0
Al  Al2  1  0.73928955  0.74777784  0.24924592  1  2.506033  0  0.418148  1.637338  0  2.52008  0
Al  Al3  1  0.26070743  0.25222222  0.74924673  1  2.506183  0  0.418063  1.637392  0  2.520278  0
H  H4  1  0.24489347  0.55873596  0.62158275  1  0.036713  0  0.093641  0.089533  0  0.998303  0
H  H5  1  0.47138818  0.54762478  0.58956574  1  0.081392  0  0.110914  0.12238  0  0.977657  0
H  H6  1  0.40396684  0.50290941  0.64548498  1  0.050947  0  0.09282  0.092821  0  1.046942  0
H  H7  1  0.57702200  0.52144184  0.47169439  1  0.093825  0  0.094808  0.096205  0  1.042539  0
H  H8  1  0.49450582  0.47546382  0.41813798  1  0.059591  0  0.102952  0.112738  0  0.972011  0
H  H9  1  0.50838672  0.55334286  0.40845493  1  0.054204  0  0.090228  0.09266  0  1.012427  0
H  H10  1  0.75511200  0.44126657  0.12158434  1  0.036657  0  0.09363  0.089472  0  0.998384  0
H  H11  1  0.52861586  0.45237541  0.08956960  1  0.081456  0  0.110925  0.12242  0  0.977586  0
H  H12  1  0.59603579  0.49709104  0.14548814  1  0.050847  0  0.092769  0.092737  0  1.046928  0
H  H13  1  0.42297223  0.47856232  0.97169873  1  0.093883  0  0.094796  0.096107  0  1.042468  0
H  H14  1  0.50548127  0.52453922  0.91814041  1  0.05957  0  0.102911  0.112664  0  0.972011  0
H  H15  1  0.49161174  0.44666057  0.90845947  1  0.053821  0  0.090257  0.092635  0  1.012491  0
H  H16  1  0.74488902  0.94126414  0.87841788  1  0.036696  0  0.093624  0.089515  0  0.998342  0
H  H17  1  0.97138233  0.95237575  0.91043667  1  0.081429  0  0.110936  0.122396  0  0.97769  0
H  H18  1  0.90396670  0.99708981  0.85451549  1  0.050985  0  0.092803  0.092827  0  1.046953  0
H  H19  1  0.07702541  0.97856163  0.02830451  1  0.093764  0  0.094831  0.096193  0  1.042408  0
H  H20  1  0.99451933  0.02453970  0.08186221  1  0.05949  0  0.10299  0.112753  0  0.97209  0
H  H21  1  0.00839012  0.94666325  0.09154485  1  0.05399  0  0.090316  0.092755  0  1.012409  0
H  H22  1  0.25512507  0.05873257  0.37841888  1  0.036671  0  0.093653  0.089482  0  0.998345  0
H  H23  1  0.02862467  0.04762681  0.41043384  1  0.081469  0  0.110906  0.12238  0  0.977637  0
H  H24  1  0.09603885  0.00291074  0.35451483  1  0.050976  0  0.092764  0.092745  0  1.047063  0
H  H25  1  0.92297576  0.02144573  0.52830101  1  0.093634  0  0.09482  0.09621  0  1.04236  0
H  H26  1  0.00550744  0.97546834  0.58185524  1  0.059584  0  0.102987  0.112766  0  0.972084  0
H  H27  1  0.99161533  0.05334616  0.59154099  1  0.053711  0  0.090209  0.092672  0  1.012455  0
H  H28  1  0.11574534  0.63846679  0.55351942  1  0.03336  0  0.091508  0.085165  0  0.998249  0
H  H29  1  0.23557991  0.69493459  0.51607908  1  0.05597  0  0.094932  0.092403  0  1.026  0
H  H30  1  0.36818512  0.64829183  0.55998013  1  0.05686  0  0.10537  0.108601  0  0.985132  0
H  H31  1  0.45382414  0.36243891  0.56912086  1  0.070869  0  0.096043  0.095653  0  1.059775  0
H  H32  1  0.59848928  0.35056356  0.51055020  1  0.040935  0  0.092291  0.088554  0  0.992993  0
H  H33  1  0.39921330  0.39991544  0.50760073  1  0.06311  0  0.107135  0.115943  0  0.99102  0
H  H34  1  0.88425726  0.36153279  0.05352419  1  0.033684  0  0.091488  0.085151  0  0.998213  0
H  H35  1  0.76441984  0.30506525  0.01608335  1  0.056042  0  0.094978  0.092412  0  1.026015  0
H  H36  1  0.63181606  0.35170866  0.05998510  1  0.056894  0  0.105371  0.108571  0  0.985076  0
H  H37  1  0.54619695  0.63755505  0.06912261  1  0.071105  0  0.096071  0.095673  0  1.059823  0
H  H38  1  0.40153320  0.64943933  0.01055373  1  0.040888  0  0.092304  0.08858  0  0.993057  0
H  H39  1  0.60078786  0.60008129  0.00760028  1  0.063028  0  0.107139  0.116007  0  0.99099  0
H  H40  1  0.61572804  0.86152629  0.94648052  1  0.03305  0  0.091478  0.085095  0  0.998361  0
H  H41  1  0.73556683  0.80506024  0.98392235  1  0.055929  0  0.094992  0.092407  0  1.025916  0
H  H42  1  0.86816781  0.85170081  0.94001597  1  0.05724  0  0.105396  0.108606  0  0.985084  0
H  H43  1  0.95380093  0.13755774  0.93088004  1  0.070879  0  0.096044  0.095593  0  1.059886  0
H  H44  1  0.09846837  0.14943485  0.98944904  1  0.041068  0  0.092285  0.088581  0  0.993077  0
H  H45  1  0.89920002  0.10008033  0.99240022  1  0.062949  0  0.107119  0.116026  0  0.990844  0
H  H46  1  0.38430740  0.13846767  0.44647530  1  0.033423  0  0.091534  0.085288  0  0.998455  0
H  H47  1  0.26447999  0.19493609  0.48391666  1  0.056108  0  0.095036  0.092418  0  1.026209  0
H  H48  1  0.13187047  0.14830013  0.44001023  1  0.05704  0  0.105443  0.108666  0  0.985247  0
H  H49  1  0.04618475  0.86244009  0.43087833  1  0.070839  0  0.096038  0.095615  0  1.059811  0
H  H50  1  0.90152302  0.85055843  0.48944887  1  0.040923  0  0.092291  0.088544  0  0.992993  0
H  H51  1  0.10078568  0.89991560  0.49239980  1  0.063091  0  0.10717  0.116016  0  0.990965  0
H  H52  1  0.07606587  0.75490924  0.45178441  1  0.021086  0  0.092359  0.082725  0  1.014584  0
H  H53  1  0.13432852  0.77042146  0.38300879  1  0.111081  0  0.104402  0.114736  0  1.021366  0
H  H54  1  0.30855929  0.78113353  0.43389819  1  0.061893  0  0.104993  0.113496  0  0.977191  0
H  H55  1  0.58776706  0.44938970  0.69059188  1  0.01717  0  0.086704  0.078173  0  1.024003  0
H  H56  1  0.75002599  0.39848642  0.72057365  1  0.058545  0  0.097459  0.097198  0  1.02309  0
H  H57  1  0.50375121  0.38062469  0.71741943  1  0.124151  0  0.109411  0.126901  0  1.018727  0
H  H58  1  0.92395393  0.24508562  0.95179217  1  0.020815  0  0.092401  0.082778  0  1.01441  0
H  H59  1  0.86568841  0.22957571  0.88301655  1  0.110855  0  0.104376  0.11462  0  1.021474  0
H  H60  1  0.69146050  0.21886125  0.93390607  1  0.062137  0  0.105017  0.113501  0  0.977164  0
H  H61  1  0.41223275  0.55061228  0.19059542  1  0.017257  0  0.086731  0.078168  0  1.023962  0
H  H62  1  0.24997951  0.60151921  0.22057635  1  0.058572  0  0.097439  0.097125  0  1.023098  0
H  H63  1  0.49625287  0.61937960  0.21741915  1  0.124238  0  0.109366  0.126848  0  1.018795  0
H  H64  1  0.57603836  0.74509116  0.04821169  1  0.020821  0  0.092364  0.082771  0  1.014574  0
H  H65  1  0.63429676  0.72958025  0.11698766  1  0.110989  0  0.104373  0.114628  0  1.021493  0
H  H66  1  0.80852608  0.71886292  0.06609930  1  0.062078  0  0.10501  0.1135  0  0.97731  0
H  H67  1  0.08776730  0.05061135  0.80940457  1  0.017204  0  0.086699  0.078107  0  1.024  0
H  H68  1  0.25001917  0.10151813  0.77942224  1  0.058488  0  0.097444  0.097168  0  1.023031  0
H  H69  1  0.00374015  0.11937723  0.78257990  1  0.124131  0  0.10939  0.126863  0  1.018749  0
H  H70  1  0.42395855  0.25491453  0.54820996  1  0.020792  0  0.092374  0.082736  0  1.014514  0
H  H71  1  0.36569591  0.27042533  0.61698644  1  0.110872  0  0.104396  0.114683  0  1.021447  0
H  H72  1  0.19146231  0.28113716  0.56609749  1  0.061991  0  0.105025  0.11349  0  0.977197  0
H  H73  1  0.91222686  0.94938943  0.30941518  1  0.017354  0  0.086712  0.078109  0  1.023941  0
H  H74  1  0.74996930  0.89848645  0.27942840  1  0.058209  0  0.097428  0.097133  0  1.02317  0
H  H75  1  0.99624690  0.88062517  0.28258096  1  0.124259  0  0.109428  0.126876  0  1.018757  0
H  H76  1  0.48477580  0.68614114  0.28498140  1  0.616145  0  0.338703  0.411129  0  0.880617  0
H  H77  1  0.51521694  0.31385864  0.78498381  1  0.616088  0  0.33875  0.411201  0  0.880331  0
H  H78  1  0.98477542  0.81386013  0.21501752  1  0.616096  0  0.338698  0.411089  0  0.880579  0
H  H79  1  0.01522581  0.18613889  0.71501551  1  0.616029  0  0.338706  0.411114  0  0.880441  0
C  C80  1  0.49510869  0.82904816  0.31452307  1  1.604502  0  0.264681  0.663904  0  4.065465  0
C  C81  1  0.50857565  0.18809950  0.67393798  1  1.586758  0  0.274562  0.691588  0  4.059116  0
C  C82  1  0.50489685  0.17094913  0.81452415  1  1.60347  0  0.264582  0.663685  0  4.065387  0
C  C83  1  0.49143979  0.81190284  0.17393925  1  1.586734  0  0.27456  0.691425  0  4.058941  0
C  C84  1  0.99509822  0.67094960  0.18547663  1  1.604269  0  0.264617  0.663762  0  4.06555  0
C  C85  1  0.00855200  0.31189760  0.82606455  1  1.58656  0  0.274548  0.691469  0  4.05859  0
C  C86  1  0.00488880  0.32905060  0.68547799  1  1.604296  0  0.264513  0.663681  0  4.065663  0
C  C87  1  0.99141801  0.68809711  0.32605806  1  1.586894  0  0.274533  0.691507  0  4.058971  0
C  C88  1  0.99667041  0.64628111  0.37183710  1  0.074118  0  -0.036704  -0.256378  0  4.008189  0
C  C89  1  0.98225214  0.37786944  0.64508957  1  0.049054  0  -0.036429  -0.253852  0  3.998235  0
C  C90  1  0.00333800  0.35371426  0.87184136  1  0.074951  0  -0.036694  -0.256484  0  4.008127  0
C  C91  1  0.01775476  0.62212970  0.14509097  1  0.049444  0  -0.036473  -0.253896  0  3.99851  0
C  C92  1  0.49666236  0.85372016  0.12816301  1  0.074534  0  -0.036747  -0.256471  0  4.008195  0
C  C93  1  0.48223968  0.12213072  0.85491211  1  0.050004  0  -0.036481  -0.253834  0  3.998342  0
C  C94  1  0.50334880  0.14628065  0.62816278  1  0.074431  0  -0.036748  -0.256516  0  4.008217  0
C  C95  1  0.51775166  0.87786676  0.35491120  1  0.049549  0  -0.036491  -0.254048  0  3.998555  0
C  C96  1  0.87220604  0.59818986  0.37296406  1  0.478263  0  0.096503  0.184003  0  4.047132  0
C  C97  1  0.13242786  0.41325862  0.62791877  1  0.455805  0  0.088758  0.161866  0  4.103062  0
C  C98  1  0.12778531  0.40180682  0.87296879  1  0.477862  0  0.096608  0.184231  0  4.046748  0
C  C99  1  0.86757477  0.58673868  0.12792362  1  0.454201  0  0.088806  0.161939  0  4.103098  0
C  C100  1  0.37221509  0.90181053  0.12703736  1  0.478226  0  0.096582  0.184194  0  4.046799  0
C  C101  1  0.63242448  0.08674155  0.87208084  1  0.455363  0  0.08877  0.161853  0  4.103034  0
C  C102  1  0.62779322  0.09819115  0.62703684  1  0.478201  0  0.096594  0.184255  0  4.047013  0
C  C103  1  0.36756971  0.91325776  0.37208142  1  0.455206  0  0.088779  0.161973  0  4.103066  0
C  C104  1  0.88126234  0.55366745  0.41148570  1  0.605503  0  0.071743  0.072454  0  4.092099  0
C  C105  1  0.12382501  0.45284284  0.58516267  1  0.565064  0  0.071869  0.056553  0  4.094579  0
C  C106  1  0.11873755  0.44633292  0.91149021  1  0.606302  0  0.071799  0.07253  0  4.092449  0
C  C107  1  0.87617761  0.54715820  0.08516576  1  0.565895  0  0.071836  0.056437  0  4.094677  0
C  C108  1  0.38126716  0.94633382  0.08851331  1  0.605525  0  0.071662  0.072447  0  4.092213  0
C  C109  1  0.62381592  0.04715776  0.91483574  1  0.565126  0  0.071826  0.056388  0  4.094618  0
C  C110  1  0.61873687  0.05366593  0.58851142  1  0.605708  0  0.071709  0.07245  0  4.092038  0
C  C111  1  0.37616692  0.95283912  0.41483687  1  0.56471  0  0.071834  0.056484  0  4.09478  0
C  C112  1  0.02527874  0.55759072  0.45064424  1  0.369317  0  0.084291  0.005476  0  4.070261  0
C  C113  1  0.95270647  0.45561056  0.55542944  1  0.42103  0  0.078372  -0.002158  0  4.059933  0
C  C114  1  0.97472259  0.44240896  0.95064431  1  0.369155  0  0.084298  0.005575  0  4.070134  0
C  C115  1  0.04729329  0.54439210  0.05543011  1  0.421056  0  0.078346  -0.002177  0  4.060064  0
C  C116  1  0.52527274  0.94240968  0.04935471  1  0.369541  0  0.084335  0.005225  0  4.070552  0
C  C117  1  0.45269539  0.04438959  0.94456986  1  0.421051  0  0.078254  -0.002124  0  4.06005  0
C  C118  1  0.47473412  0.05758900  0.54935738  1  0.369206  0  0.084245  0.005221  0  4.070706  0
C  C119  1  0.54729030  0.95560611  0.44457043  1  0.420786  0  0.078313  -0.002273  0  4.059964  0
C  C120  1  0.15076516  0.60577496  0.45133513  1  0.530755  0  0.070924  0.066464  0  4.056199  0
C  C121  1  0.79233808  0.42333484  0.57347662  1  0.5584  0  0.08064  0.079152  0  4.043794  0
C  C122  1  0.84923617  0.39422384  0.95133994  1  0.530116  0  0.07086  0.066879  0  4.056138  0
C  C123  1  0.20765742  0.57666571  0.07347605  1  0.558304  0  0.080719  0.079354  0  4.043672  0
C  C124  1  0.65075912  0.89422368  0.04866210  1  0.530289  0  0.070848  0.067037  0  4.056245  0
C  C125  1  0.29232987  0.07666444  0.92652284  1  0.558315  0  0.080774  0.079389  0  4.043624  0
C  C126  1  0.34925059  0.10577719  0.54865947  1  0.529935  0  0.070969  0.066471  0  4.056277  0
C  C127  1  0.70765297  0.92333074  0.42652513  1  0.558688  0  0.08078  0.079389  0  4.043352  0
C  C128  1  0.13618067  0.65025088  0.41264608  1  0.578301  0  0.080615  0.149586  0  4.061189  0
C  C129  1  0.80342713  0.38985162  0.62073030  1  0.567262  0  0.080412  0.150777  0  4.042124  0
C  C130  1  0.86382490  0.34974556  0.91265391  1  0.576903  0  0.080679  0.149851  0  4.06039  0
C  C131  1  0.19656981  0.61014915  0.12073147  1  0.567341  0  0.080347  0.150667  0  4.042172  0
C  C132  1  0.63617176  0.84974909  0.08734996  1  0.578586  0  0.080576  0.1497  0  4.060469  0
C  C133  1  0.30342035  0.11014898  0.87926875  1  0.567319  0  0.080224  0.150468  0  4.042293  0
C  C134  1  0.36383654  0.15025021  0.58734668  1  0.578694  0  0.080681  0.149698  0  4.060513  0
C  C135  1  0.69656815  0.88984642  0.37926972  1  0.567222  0  0.080395  0.150762  0  4.042222  0
C  C136  1  0.35241220  0.52606627  0.60985971  1  0.395365  0  -0.138246  -0.177779  0  3.89343  0
C  C137  1  0.57413210  0.51526617  0.42812480  1  0.354977  0  -0.143422  -0.169137  0  3.880328  0
C  C138  1  0.64758900  0.47393313  0.10986313  1  0.395383  0  -0.138182  -0.177594  0  3.893224  0
C  C139  1  0.42586496  0.48473516  0.92812635  1  0.355401  0  -0.143312  -0.168797  0  3.880094  0
C  C140  1  0.85240637  0.97393426  0.89014122  1  0.395308  0  -0.138218  -0.177745  0  3.893489  0
C  C141  1  0.07413126  0.98473730  0.07187772  1  0.35543  0  -0.143529  -0.169149  0  3.880179  0
C  C142  1  0.14759351  0.02606558  0.39013979  1  0.395197  0  -0.138149  -0.177579  0  3.893403  0
C  C143  1  0.92587277  0.01526807  0.57187138  1  0.356107  0  -0.143499  -0.169211  0  3.880459  0
C  C144  1  0.24774075  0.65023536  0.53222700  1  0.393189  0  -0.138244  -0.171493  0  3.927599  0
C  C145  1  0.51322968  0.38277709  0.53303056  1  0.39753  0  -0.141422  -0.182106  0  3.902005  0
C  C146  1  0.75226185  0.34976500  0.03223145  1  0.392561  0  -0.138212  -0.170689  0  3.927957  0
C  C147  1  0.48678144  0.61722152  0.03303068  1  0.397509  0  -0.141473  -0.182271  0  3.902073  0
C  C148  1  0.74772060  0.84976123  0.96777202  1  0.392896  0  -0.138165  -0.17054  0  3.927958  0
C  C149  1  0.01321726  0.11722089  0.96696957  1  0.397528  0  -0.141429  -0.182156  0  3.902017  0
C  C150  1  0.25231200  0.15023941  0.46776617  1  0.3925  0  -0.138256  -0.171512  0  3.928287  0
C  C151  1  0.98677412  0.88277580  0.46696984  1  0.397618  0  -0.141442  -0.182152  0  3.901928  0
C  C152  1  0.18883134  0.75365028  0.42120727  1  0.361368  0  -0.141892  -0.178547  0  3.897299  0
C  C153  1  0.62002778  0.40271307  0.69692883  1  0.357635  0  -0.147124  -0.168149  0  3.871587  0
C  C154  1  0.81118703  0.24634532  0.92121554  1  0.361611  0  -0.141906  -0.178428  0  3.897089  0
C  C155  1  0.37997488  0.59729245  0.19693018  1  0.357454  0  -0.147086  -0.168004  0  3.871696  0
C  C156  1  0.68880668  0.74634968  0.07878873  1  0.361384  0  -0.141912  -0.178507  0  3.897714  0
C  C157  1  0.12002238  0.09729061  0.80307080  1  0.357604  0  -0.1471  -0.168025  0  3.871713  0
C  C158  1  0.31119308  0.25365265  0.57878790  1  0.361757  0  -0.141909  -0.178462  0  3.897531  0
C  C159  1  0.87996467  0.90270838  0.30307485  1  0.357923  0  -0.147112  -0.167969  0  3.871612  0
N  N160  1  0.05960205  0.51159668  0.48726151  1  -0.40565  0  -0.120918  -0.052614  0  3.248289  0
N  N161  1  0.91880250  0.49836570  0.51624939  1  -0.437821  0  -0.125714  -0.070041  0  3.290757  0
N  N162  1  0.94038934  0.48840536  0.98726298  1  -0.405422  0  -0.120945  -0.052639  0  3.248166  0
N  N163  1  0.08119014  0.50163634  0.01625066  1  -0.43767  0  -0.12572  -0.070054  0  3.290825  0
N  N164  1  0.55959893  0.98840240  0.01273621  1  -0.405513  0  -0.12091  -0.052367  0  3.248216  0
N  N165  1  0.41879281  0.00163402  0.98374954  1  -0.437973  0  -0.125702  -0.070182  0  3.290667  0
N  N166  1  0.44039655  0.01159216  0.51273954  1  -0.405314  0  -0.120907  -0.052498  0  3.248397  0
N  N167  1  0.58119289  0.99836406  0.48374904  1  -0.437719  0  -0.125737  -0.070117  0  3.29075  0
O  O168  1  0.65259140  0.79484386  0.19153614  1  -1.262952  0  -0.230614  -0.595036  0  2.35981  0
O  O169  1  0.35074893  0.19403454  0.79845796  1  -1.249699  0  -0.233474  -0.58733  0  2.439068  0
O  O170  1  0.34740557  0.20515549  0.69153870  1  -1.262889  0  -0.230677  -0.595253  0  2.359562  0
O  O171  1  0.64922533  0.80596925  0.29845585  1  -1.249929  0  -0.233465  -0.587287  0  2.439639  0
O  O172  1  0.15260317  0.70515391  0.30845869  1  -1.262653  0  -0.23063  -0.595175  0  2.359447  0
O  O173  1  0.85076418  0.30597307  0.70154785  1  -1.249758  0  -0.233375  -0.587245  0  2.439629  0
O  O174  1  0.84740663  0.29483590  0.80846952  1  -1.262953  0  -0.230599  -0.594928  0  2.359691  0
O  O175  1  0.14924132  0.69403159  0.20154339  1  -1.249741  0  -0.23347  -0.587303  0  2.439187  0
O  O176  1  0.32721209  0.81323440  0.30068037  1  -1.239579  0  -0.241466  -0.595633  0  2.307586  0
O  O177  1  0.67067825  0.20251138  0.69224702  1  -1.24988  0  -0.228934  -0.587706  0  2.347964  0
O  O178  1  0.67276501  0.18675975  0.80067814  1  -1.239259  0  -0.241406  -0.595425  0  2.307903  0
O  O179  1  0.32931445  0.79749016  0.19224999  1  -1.24981  0  -0.228963  -0.587753  0  2.347507  0
O  O180  1  0.82722580  0.68676336  0.19931749  1  -1.23948  0  -0.241421  -0.595506  0  2.307961  0
O  O181  1  0.17068301  0.29748966  0.80774975  1  -1.249693  0  -0.228996  -0.587896  0  2.347335  0
O  O182  1  0.17278112  0.31323558  0.69931823  1  -1.239439  0  -0.241399  -0.595499  0  2.307663  0
O  O183  1  0.82931969  0.70250935  0.30774948  1  -1.24994  0  -0.228927  -0.587749  0  2.347969  0
O  O184  1  0.48689241  0.71413399  0.25557261  1  -1.42209  0  -0.450363  -0.961982  0  2.089686  0
O  O185  1  0.51310174  0.28586654  0.75557412  1  -1.421982  0  -0.45038  -0.962022  0  2.089382  0
O  O186  1  0.98689344  0.78586640  0.24442550  1  -1.422011  0  -0.450338  -0.96193  0  2.089644  0
O  O187  1  0.01310497  0.21413319  0.74442360  1  -1.421934  0  -0.450358  -0.961965  0  2.089569  0
O  O188  1  0.27454857  0.48657134  0.57070635  1  -1.049893  0  -0.178273  -0.130886  0  2.664105  0
O  O189  1  0.76522031  0.50578850  0.40814112  1  -1.070023  0  -0.215592  -0.184178  0  2.546042  0
O  O190  1  0.72544408  0.51342876  0.07070865  1  -1.04981  0  -0.178265  -0.130948  0  2.663989  0
O  O191  1  0.23476394  0.49420835  0.90814290  1  -1.070285  0  -0.215733  -0.184346  0  2.546192  0
O  O192  1  0.77454514  0.01342970  0.92929392  1  -1.049836  0  -0.17827  -0.130853  0  2.664024  0
O  O193  1  0.26522944  0.99421321  0.09185840  1  -1.070102  0  -0.215636  -0.184205  0  2.545946  0
O  O194  1  0.22544765  0.98656769  0.42929452  1  -1.049781  0  -0.178274  -0.130894  0  2.664129  0
O  O195  1  0.73478881  0.00578830  0.59185662  1  -1.070526  0  -0.215574  -0.18417  0  2.54599  0
O  O196  1  0.28736621  0.60848276  0.49068943  1  -1.079193  0  -0.199503  -0.160461  0  2.570394  0
O  O197  1  0.62811605  0.43276064  0.54627060  1  -1.068965  0  -0.181047  -0.133946  0  2.640651  0
O  O198  1  0.71263513  0.39151667  0.99069636  1  -1.07899  0  -0.199542  -0.161948  0  2.571625  0
O  O199  1  0.37187660  0.56724110  0.04626944  1  -1.068983  0  -0.181052  -0.133928  0  2.64051  0
O  O200  1  0.78735731  0.89151413  0.00930447  1  -1.078825  0  -0.199591  -0.162107  0  2.571655  0
O  O201  1  0.12810499  0.06723821  0.95372941  1  -1.069031  0  -0.180956  -0.133958  0  2.64054  0
O  O202  1  0.21266660  0.10848524  0.50930197  1  -1.078669  0  -0.199761  -0.160653  0  2.570797  0
O  O203  1  0.87187643  0.93275579  0.45373198  1  -1.068902  0  -0.181111  -0.133993  0  2.640155  0
O  O204  1  0.26434661  0.69514315  0.41677683  1  -1.071917  0  -0.198174  -0.162459  0  2.561329  0
O  O205  1  0.63812902  0.37422788  0.64504207  1  -1.0483  0  -0.189908  -0.156999  0  2.57537  0
O  O206  1  0.73566466  0.30485110  0.91678780  1  -1.070461  0  -0.198177  -0.162597  0  2.560949  0
O  O207  1  0.36187646  0.62577213  0.14504315  1  -1.048339  0  -0.18987  -0.156954  0  2.575385  0
O  O208  1  0.76433481  0.80485242  0.08321749  1  -1.071938  0  -0.198087  -0.162459  0  2.561035  0
O  O209  1  0.13811799  0.12577141  0.85495593  1  -1.048372  0  -0.189772  -0.156828  0  2.575426  0
O  O210  1  0.23567349  0.19515037  0.58321491  1  -1.072053  0  -0.19821  -0.162556  0  2.561079  0
O  O211  1  0.86186766  0.87422344  0.35495829  1  -1.048537  0  -0.189921  -0.157011  0  2.575409  0
F  F212  1  0.29809129  0.41106330  0.65464300  1  -0.636527  0  -0.058132  -0.082411  0  1.583183  0
F  F213  1  0.74002298  0.59164531  0.33365981  1  -0.625907  0  -0.0925  -0.11461  0  1.368826  0
F  F214  1  0.70191846  0.58893017  0.15465202  1  -0.636276  0  -0.05815  -0.082426  0  1.583137  0
F  F215  1  0.25997546  0.40835075  0.83366163  1  -0.626059  0  -0.09257  -0.11477  0  1.36857  0
F  F216  1  0.79807653  0.08893335  0.84535325  1  -0.636396  0  -0.058096  -0.082351  0  1.583289  0
F  F217  1  0.24003775  0.90835815  0.16634294  1  -0.62588  0  -0.092505  -0.114636  0  1.368641  0
F  F218  1  0.20190912  0.91106452  0.34535277  1  -0.636255  0  -0.058121  -0.082427  0  1.583188  0
F  F219  1  0.75997627  0.09164634  0.66633946  1  -0.625897  0  -0.092483  -0.114633  0  1.368861  0
