# generated using pymatgen
data_Al3H31C42(Cl3O7)2
_symmetry_space_group_name_H-M   'P 1'
_cell_length_a   13.70642706
_cell_length_b   13.90055825
_cell_length_c   27.55688796
_cell_angle_alpha   86.37129825
_cell_angle_beta   88.99047674
_cell_angle_gamma   62.38418641
_symmetry_Int_Tables_number   1
_chemical_formula_structural   Al3H31C42(Cl3O7)2
_chemical_formula_sum   'Al6 H62 C84 Cl12 O28'
_cell_volume   4642.45579165
_cell_formula_units_Z   2
loop_
 _symmetry_equiv_pos_site_id
 _symmetry_equiv_pos_as_xyz
  1  'x, y, z'
loop_
 _atom_site_type_symbol
 _atom_site_label
 _atom_site_symmetry_multiplicity
 _atom_site_fract_x
 _atom_site_fract_y
 _atom_site_fract_z
 _atom_site_occupancy
 _atom_site_pbe_bader_charge
 _atom_site_pbe_bader_spin_density
 _atom_site_pbe_cm5_charge
 _atom_site_pbe_ddec_charge
 _atom_site_pbe_ddec_spin_density
 _atom_site_pbe_ddec_sum_bond_order
 _atom_site_pbe_magmom
Al  Al0  1  0.51052846  0.69830751  0.75211968  1  2.492834  0  0.40302  1.689263  0  2.539946  0
Al  Al1  1  0.73938035  0.70751582  0.75464820  1  2.480453  0  0.505255  1.659175  0  2.515389  0
Al  Al2  1  0.74823307  0.48897015  0.75375889  1  2.483082  0  0.499773  1.6525  0  2.524636  0
Al  Al3  1  0.21353817  0.30652202  0.24757541  1  2.495597  0  0.406351  1.687643  0  2.534111  0
Al  Al4  1  0.45872908  0.27575936  0.24213224  1  2.482621  0  0.501799  1.654558  0  2.521597  0
Al  Al5  1  0.27482458  0.50274065  0.24395835  1  2.481352  0  0.5004  1.651869  0  2.528725  0
H  H6  1  0.04138003  0.69652105  0.02408776  1  0.080559  0  0.099149  0.131174  0  0.988953  0
H  H7  1  0.55806321  0.64498103  0.51703967  1  0.004271  0  0.091173  0.085768  0  0.99229  0
H  H8  1  0.84221259  0.55469378  0.53025677  1  0.020957  0  0.092706  0.088815  0  0.987434  0
H  H9  1  0.63303983  0.80138239  0.52030202  1  0.026527  0  0.090498  0.084786  0  0.994243  0
H  H10  1  0.92772575  0.67719419  0.54780199  1  0.04507  0  0.095826  0.0948  0  0.981927  0
H  H11  1  0.71481358  0.45157934  0.52127864  1  0.029735  0  0.092417  0.089949  0  0.998103  0
H  H12  1  0.42771818  0.88775953  0.53320988  1  0.015715  0  0.095075  0.094715  0  0.981983  0
H  H13  1  0.66623816  0.33603541  0.44809697  1  0.060039  0  0.096553  0.096482  0  0.976017  0
H  H14  1  0.10338405  0.63004044  0.47779648  1  0.024144  0  0.094329  0.092725  0  0.981065  0
H  H15  1  0.32381846  0.08776354  0.46907797  1  0.047527  0  0.093533  0.091236  0  0.982447  0
H  H16  1  0.06969255  0.61929206  0.56119911  1  0.040196  0  0.097748  0.098513  0  0.971134  0
H  H17  1  0.72971952  0.41944208  0.03771180  1  0.10515  0  0.096827  0.129359  0  0.994191  0
H  H18  1  0.68607305  0.34095709  0.53213529  1  0.021433  0  0.095899  0.0954  0  0.974655  0
H  H19  1  0.35563170  0.02253856  0.55082559  1  0.0148  0  0.096804  0.097193  0  0.973598  0
H  H20  1  0.69007920  0.44981393  0.43750093  1  0.011639  0  0.095584  0.095422  0  0.974977  0
H  H21  1  0.96223119  0.67991342  0.46428841  1  0.012408  0  0.095011  0.094996  0  0.975363  0
H  H22  1  0.39047983  0.95261632  0.45155331  1  0.028463  0  0.095658  0.095713  0  0.974919  0
H  H23  1  0.07521800  0.37579164  0.97935158  1  0.082645  0  0.099891  0.133281  0  0.984614  0
H  H24  1  0.51305365  0.30066084  0.97193520  1  0.078392  0  0.095714  0.126166  0  1.000711  0
H  H25  1  0.39427864  0.08609549  0.92050005  1  0.08783  0  0.108191  0.140857  0  0.960406  0
H  H26  1  0.62825546  0.55696269  0.02667722  1  0.10923  0  0.092646  0.122842  0  1.018167  0
H  H27  1  0.89730448  0.74445015  0.02802856  1  0.094796  0  0.104343  0.136122  0  0.963514  0
H  H28  1  0.35780649  0.94132200  0.05600917  1  0.095201  0  0.097943  0.130194  0  0.998419  0
H  H29  1  0.49164757  0.89230324  0.08104381  1  0.102704  0  0.108431  0.142266  0  0.960828  0
H  H30  1  0.79613254  0.60922070  0.97528185  1  0.09802  0  0.073773  0.07684  0  1.086999  0
H  H31  1  0.43005466  0.59277440  0.94627332  1  0.072769  0  0.092695  0.105826  0  0.997103  0
H  H32  1  0.66722589  0.91161892  0.97852905  1  0.068312  0  0.080939  0.088503  0  1.051195  0
H  H33  1  0.38278342  0.51449322  0.04035485  1  0.073161  0  0.082096  0.09926  0  1.044104  0
H  H34  1  0.90160897  0.48285825  0.06647178  1  0.062967  0  0.09585  0.108893  0  0.987033  0
H  H35  1  0.54893842  0.11104032  0.02387266  1  0.065777  0  0.082745  0.092761  0  1.047699  0
H  H36  1  0.87338774  0.46712103  0.98447539  1  0.075093  0  0.08668  0.100628  0  1.020197  0
H  H37  1  0.38319676  0.49445186  0.95674602  1  0.047172  0  0.09509  0.108828  0  0.975727  0
H  H38  1  0.58152321  0.03727965  0.94730747  1  0.06102  0  0.100674  0.11498  0  0.955351  0
H  H39  1  0.65761622  0.25125901  0.96848656  1  0.111941  0  0.097322  0.129834  0  0.991975  0
H  H40  1  0.43179711  0.61075573  0.02998994  1  0.055808  0  0.090186  0.102524  0  1.003986  0
H  H41  1  0.81833051  0.62489502  0.05830137  1  0.042785  0  0.088483  0.101266  0  1.000989  0
H  H42  1  0.60584736  0.98149538  0.05461582  1  0.057569  0  0.100466  0.114295  0  0.959204  0
H  H43  1  0.97352498  0.40742533  0.45502164  1  0.032286  0  0.097601  0.098481  0  0.97116  0
H  H44  1  0.39461221  0.65965688  0.44508056  1  0.026229  0  0.096752  0.097421  0  0.973699  0
H  H45  1  0.67285162  0.93538497  0.44422624  1  0.053149  0  0.096169  0.095729  0  0.975603  0
H  H46  1  0.38153536  0.50891887  0.54492165  1  0.035898  0  0.096011  0.095357  0  0.976529  0
H  H47  1  0.12486855  0.32904062  0.55697778  1  0.057817  0  0.096321  0.096224  0  0.974932  0
H  H48  1  0.60284163  0.07262758  0.55097886  1  0.043641  0  0.09532  0.094763  0  0.977081  0
H  H49  1  0.92216974  0.41186510  0.53675951  1  0.039495  0  0.096676  0.094963  0  0.979657  0
H  H50  1  0.14825705  0.44675119  0.95859321  1  0.116698  0  0.089374  0.117869  0  1.021902  0
H  H51  1  0.42190683  0.66863797  0.52814959  1  0.014187  0  0.097514  0.097334  0  0.973877  0
H  H52  1  0.70511446  0.87732567  0.52672935  1  0.041207  0  0.094034  0.092113  0  0.981435  0
H  H53  1  0.35960202  0.49833175  0.46154825  1  0.024765  0  0.093467  0.088336  0  0.993972  0
H  H54  1  0.17637336  0.33454105  0.47571137  1  0.03034  0  0.095326  0.093089  0  0.983446  0
H  H55  1  0.57419248  0.12969296  0.46832273  1  0.019964  0  0.094097  0.091667  0  0.981101  0
H  H56  1  0.18561019  0.41219066  0.57021772  1  0.018343  0  0.096575  0.096225  0  0.976537  0
H  H57  1  0.49018185  0.37449236  0.54761387  1  0.018336  0  0.095541  0.096138  0  0.976488  0
H  H58  1  0.45924698  0.13354639  0.55977436  1  0.025474  0  0.095194  0.094924  0  0.976998  0
H  H59  1  0.52912084  0.64125751  0.43376424  1  0.025056  0  0.094249  0.092352  0  0.980015  0
H  H60  1  0.88670431  0.54892855  0.44772124  1  0.03173  0  0.094692  0.093112  0  0.97809  0
H  H61  1  0.32766962  0.00975181  0.94260521  1  0.093172  0  0.098391  0.128743  0  0.995752  0
H  H62  1  0.59960195  0.86063661  0.43807348  1  0.023551  0  0.094171  0.092652  0  0.978808  0
H  H63  1  0.22764807  0.42585060  0.48823510  1  0.031453  0  0.092227  0.089995  0  0.996473  0
H  H64  1  0.46993297  0.36496957  0.46414132  1  0.030905  0  0.094134  0.090662  0  0.995494  0
H  H65  1  0.43047763  0.19321797  0.47755278  1  0.030563  0  0.092262  0.089014  0  0.991504  0
H  H66  1  0.33047983  0.79104547  0.78115428  1  0.585282  0  0.294311  0.386883  0  0.917741  0
H  H67  1  0.09068121  0.24754942  0.28038756  1  0.590983  0  0.29405  0.384927  0  0.92001  0
C  C68  1  0.58299595  0.80202737  0.82790091  1  1.664482  0  0.274339  0.714028  0  4.148457  0
C  C69  1  0.48149196  0.60953935  0.45577870  1  -0.005339  0  -0.152857  -0.189567  0  3.852312  0
C  C70  1  0.95508835  0.48564502  0.46971468  1  -0.019415  0  -0.1524  -0.186755  0  3.845632  0
C  C71  1  0.60529475  0.92190284  0.45952545  1  -0.03395  0  -0.152972  -0.186682  0  3.84486  0
C  C72  1  0.10954303  0.49811417  0.36944964  1  0.240104  0  -0.052088  -0.223005  0  3.978282  0
C  C73  1  0.48780164  0.46246677  0.35166740  1  0.222913  0  -0.051241  -0.230337  0  3.977585  0
C  C74  1  0.45273510  0.09970240  0.35955418  1  0.216326  0  -0.049583  -0.220027  0  3.966016  0
C  C75  1  0.57324684  0.51080427  0.63065881  1  0.245496  0  -0.050116  -0.220477  0  3.989585  0
C  C76  1  0.94408261  0.51478620  0.64731261  1  0.247117  0  -0.049612  -0.228937  0  3.968892  0
C  C77  1  0.56601884  0.89210199  0.63898921  1  0.326639  0  -0.048353  -0.219675  0  3.965865  0
C  C78  1  0.00963529  0.50108288  0.55538956  1  0.141458  0  0.002436  0.165199  0  3.89845  0
C  C79  1  0.87382697  0.53771829  0.82200108  1  1.649948  0  0.285829  0.729124  0  4.135979  0
C  C80  1  0.54361435  0.49870386  0.53654477  1  0.116571  0  0.001006  0.169294  0  3.90515  0
C  C81  1  0.53216812  0.96272965  0.54538116  1  0.152533  0  0.001505  0.168329  0  3.892425  0
C  C82  1  0.51768208  0.49061333  0.44367274  1  0.17485  0  0.001711  0.165142  0  3.902327  0
C  C83  1  0.05748041  0.50480550  0.46323259  1  0.115887  0  0.001492  0.170062  0  3.898336  0
C  C84  1  0.49642220  0.02956394  0.45301575  1  0.136245  0  0.0018  0.16547  0  3.895371  0
C  C85  1  0.03263991  0.61423485  0.48433497  1  0.001539  0  -0.154846  -0.189989  0  3.85871  0
C  C86  1  0.64014166  0.41933806  0.45856147  1  -0.037565  0  -0.152463  -0.186939  0  3.851596  0
C  C87  1  0.40029539  0.01073820  0.47363587  1  -0.045633  0  -0.152811  -0.185286  0  3.850174  0
C  C88  1  0.65492880  0.42238927  0.51375826  1  -0.000776  0  -0.153789  -0.187245  0  3.851777  0
C  C89  1  0.00847825  0.61052868  0.53922978  1  -0.021666  0  -0.152481  -0.187665  0  3.845225  0
C  C90  1  0.58980372  0.48004518  0.81179559  1  1.669839  0  0.282367  0.717332  0  4.15354  0
C  C91  1  0.42249242  0.96901929  0.52770487  1  0.010741  0  -0.152351  -0.186032  0  3.843702  0
C  C92  1  0.08529236  0.50379975  0.41218661  1  -0.523427  0  -0.016829  -0.02888  0  4.026352  0
C  C93  1  0.50190559  0.48036438  0.39286978  1  -0.510047  0  -0.00321  -0.000531  0  4.002404  0
C  C94  1  0.47500098  0.06728560  0.40198360  1  -0.492828  0  -0.012667  -0.020966  0  4.003309  0
C  C95  1  0.55866754  0.50419685  0.58794141  1  -0.522512  0  -0.016671  -0.02875  0  4.035273  0
C  C96  1  0.97837130  0.50329454  0.60598846  1  -0.484966  0  -0.001506  0.000854  0  3.99231  0
C  C97  1  0.55176243  0.92508495  0.59642909  1  -0.596641  0  -0.012105  -0.021108  0  4.003622  0
C  C98  1  0.58568910  0.83863191  0.68699811  1  1.643537  0  0.279632  0.715322  0  4.154117  0
C  C99  1  0.88300251  0.54026817  0.69147628  1  1.608272  0  0.283444  0.729086  0  4.143562  0
C  C100  1  0.59256483  0.53147229  0.67906954  1  1.675682  0  0.27793  0.719225  0  4.157864  0
C  C101  1  0.37541026  0.19154655  0.17116009  1  1.669287  0  0.279329  0.709811  0  4.142788  0
C  C102  1  0.42152442  0.15178112  0.31139855  1  1.649421  0  0.27586  0.712479  0  4.153378  0
C  C103  1  0.45168282  0.43956507  0.30748139  1  1.642776  0  0.279752  0.725028  0  4.154854  0
C  C104  1  0.14800963  0.47385000  0.32057394  1  1.669186  0  0.274782  0.725147  0  4.150263  0
C  C105  1  0.96921397  0.65675362  0.96349710  1  0.219997  0  0.070229  0.232489  0  3.681424  0
C  C106  1  0.65207161  0.45626616  0.96581775  1  0.236672  0  0.075141  0.234042  0  3.648886  0
C  C107  1  0.48965095  0.86529035  0.00424342  1  0.232371  0  0.073602  0.234836  0  3.672589  0
C  C108  1  0.58568061  0.32867441  0.03557523  1  0.208558  0  0.069698  0.228811  0  3.680749  0
C  C109  1  0.09513436  0.47204880  0.03375286  1  0.221298  0  0.070872  0.232985  0  3.673888  0
C  C110  1  0.35001949  0.10571573  0.99680219  1  0.221842  0  0.071717  0.234812  0  3.679072  0
C  C111  1  0.07876267  0.45271692  0.98060090  1  -0.040732  0  -0.16734  -0.291729  0  3.841505  0
C  C112  1  0.46551670  0.44034127  0.18075566  1  1.665327  0  0.286788  0.727589  0  4.137419  0
C  C113  1  0.58084810  0.31831969  0.98022104  1  -0.039835  0  -0.165441  -0.290625  0  3.834001  0
C  C114  1  0.38811668  0.03669246  0.95180158  1  -0.013024  0  -0.161668  -0.287198  0  3.820674  0
C  C115  1  0.64893668  0.47237768  0.02105840  1  -0.064906  0  -0.16467  -0.284448  0  3.817605  0
C  C116  1  0.97488194  0.67590826  0.01781905  1  -0.035275  0  -0.16262  -0.289216  0  3.830631  0
C  C117  1  0.43993558  0.93339133  0.04885059  1  -0.050633  0  -0.161928  -0.291297  0  3.824349  0
C  C118  1  0.03882851  0.57287597  0.14356260  1  0.219938  0  -0.041012  -0.196196  0  3.932028  0
C  C119  1  0.51742774  0.46349833  0.13916107  1  0.219169  0  -0.04266  -0.20685  0  3.917747  0
C  C120  1  0.39105226  0.14179185  0.12491944  1  0.235701  0  -0.035082  -0.176981  0  3.900943  0
C  C121  1  0.56614630  0.43386340  0.85584130  1  0.211266  0  -0.043804  -0.199286  0  3.929427  0
C  C122  1  0.92803229  0.51983173  0.86819596  1  0.311909  0  -0.040913  -0.207569  0  3.92384  0
C  C123  1  0.10642614  0.52578933  0.18660989  1  1.656483  0  0.283961  0.715868  0  4.147115  0
C  C124  1  0.55983576  0.84665342  0.87543870  1  0.054825  0  -0.038108  -0.18072  0  3.908831  0
C  C125  1  0.96959349  0.54499650  0.95915808  1  0.150489  0  -0.001539  0.1164  0  3.880197  0
C  C126  1  0.55951423  0.42574813  0.95176217  1  0.128198  0  -0.00076  0.122312  0  3.883478  0
C  C127  1  0.50255892  0.93665121  0.96093503  1  0.111003  0  -0.000815  0.117146  0  3.880106  0
C  C128  1  0.55985148  0.44812813  0.04547977  1  0.12203  0  9.5e-05  0.117857  0  3.879877  0
C  C129  1  0.99108574  0.57487355  0.05070788  1  0.119906  0  -0.001034  0.119651  0  3.886222  0
C  C130  1  0.43284955  0.04774542  0.04020780  1  0.138727  0  0.000294  0.119028  0  3.866402  0
C  C131  1  0.88996328  0.55549949  0.04406911  1  -0.012829  0  -0.161146  -0.183914  0  3.83254  0
C  C132  1  0.44678604  0.52875673  0.02202263  1  -0.04951  0  -0.163142  -0.189906  0  3.833397  0
C  C133  1  0.54879502  0.03230852  0.02518235  1  -0.025497  0  -0.164227  -0.196158  0  3.851423  0
C  C134  1  0.12524583  0.40645109  0.54643186  1  -0.024325  0  -0.151692  -0.187838  0  3.846676  0
C  C135  1  0.44671992  0.51676453  0.96707891  1  -0.015493  0  -0.160514  -0.189707  0  3.839213  0
C  C136  1  0.87406637  0.54419109  0.98998051  1  -0.086762  0  -0.170464  -0.194256  0  3.82836  0
C  C137  1  0.58328905  0.97875730  0.97642873  1  -0.049057  0  -0.164365  -0.192483  0  3.85513  0
C  C138  1  0.00918865  0.58547888  0.10134935  1  -0.424625  0  -0.023711  -0.019111  0  4.011948  0
C  C139  1  0.54889330  0.46011018  0.09751400  1  -0.422954  0  -0.012457  0.006174  0  3.974755  0
C  C140  1  0.40183738  0.10362761  0.08544222  1  -0.461533  0  -0.025869  -0.023717  0  3.986448  0
C  C141  1  0.56148938  0.41897979  0.89949791  1  -0.436817  0  -0.024641  -0.020556  0  4.014034  0
C  C142  1  0.95282788  0.52825921  0.90922719  1  -0.53761  0  -0.010767  0.014856  0  3.990998  0
C  C143  1  0.53653645  0.88152368  0.91570279  1  -0.27398  0  -0.02859  -0.030306  0  4.009506  0
C  C144  1  0.92431348  0.48737799  0.52403954  1  -0.025099  0  -0.15144  -0.187709  0  3.847111  0
C  C145  1  0.46016614  0.45498176  0.52838251  1  -0.003944  0  -0.151593  -0.186138  0  3.84873  0
C  C146  1  0.49901518  0.61395107  0.51078674  1  0.010695  0  -0.151962  -0.184684  0  3.842089  0
C  C147  1  0.62696843  0.88289885  0.51404979  1  -0.037152  0  -0.15254  -0.18504  0  3.844294  0
C  C148  1  0.44585031  0.44871238  0.47336618  1  -0.018121  0  -0.150948  -0.185566  0  3.841974  0
C  C149  1  0.15541723  0.41155732  0.49222329  1  -0.022807  0  -0.151824  -0.184464  0  3.835074  0
C  C150  1  0.50629617  0.11579376  0.48288740  1  -0.023042  0  -0.152741  -0.185401  0  3.843367  0
C  C151  1  0.52591937  0.07686949  0.53746179  1  -0.020985  0  -0.151693  -0.187764  0  3.844871  0
Cl  Cl152  1  0.08359581  0.65810676  0.93093865  1  -0.201052  0  -0.031883  -0.119168  0  1.395267  0
Cl  Cl153  1  0.63193352  0.57809883  0.93134775  1  -0.19685  0  0.007431  -0.088374  0  1.563677  0
Cl  Cl154  1  0.84636426  0.76364411  0.93517228  1  -0.203538  0  -0.008682  -0.102264  0  1.486455  0
Cl  Cl155  1  0.62253289  0.75489922  0.02129324  1  -0.225991  0  0.00346  -0.111128  0  1.59242  0
Cl  Cl156  1  0.78424393  0.34956710  0.94946223  1  -0.204251  0  -0.011439  -0.108096  0  1.443483  0
Cl  Cl157  1  0.40308670  0.80842869  0.98608569  1  -0.206543  0  -0.003332  -0.101012  0  1.4708  0
Cl  Cl158  1  0.71970956  0.23455920  0.06007364  1  -0.205406  0  -0.032141  -0.122424  0  1.383892  0
Cl  Cl159  1  0.21404780  0.49420212  0.03881790  1  -0.224193  0  -0.020676  -0.12926  0  1.595139  0
Cl  Cl160  1  0.21497100  0.12497246  0.01311307  1  -0.204898  0  -0.019047  -0.112955  0  1.459681  0
Cl  Cl161  1  0.11892320  0.35651743  0.07335424  1  -0.17022  0  0.005528  -0.079596  0  1.543771  0
Cl  Cl162  1  0.48861423  0.29505305  0.06626558  1  -0.188781  0  0.009104  -0.088189  0  1.654101  0
Cl  Cl163  1  0.34107195  0.23722946  0.98175349  1  -0.214463  0  -0.009359  -0.109769  0  1.55806  0
O  O164  1  0.52040580  0.57491531  0.79746552  1  -1.218204  0  -0.20502  -0.555251  0  2.287718  0
O  O165  1  0.28051746  0.22897946  0.18929147  1  -1.215902  0  -0.200335  -0.528358  0  2.273085  0
O  O166  1  0.51868046  0.34368698  0.20078368  1  -1.252394  0  -0.224665  -0.587738  0  2.251713  0
O  O167  1  0.15995026  0.57535894  0.20088217  1  -1.260171  0  -0.240278  -0.599137  0  2.210961  0
O  O168  1  0.51843544  0.61561760  0.69694139  1  -1.232609  0  -0.204053  -0.539572  0  2.278988  0
O  O169  1  0.67540087  0.82242981  0.70906605  1  -1.261211  0  -0.24622  -0.609841  0  2.212471  0
O  O170  1  0.86807297  0.46445969  0.71401951  1  -1.25205  0  -0.229246  -0.59229  0  2.238948  0
O  O171  1  0.15155958  0.38822429  0.30538736  1  -1.227292  0  -0.216377  -0.575691  0  2.30097  0
O  O172  1  0.49915187  0.15992537  0.28641905  1  -1.258925  0  -0.24732  -0.608561  0  2.203376  0
O  O173  1  0.36977407  0.52018907  0.28543021  1  -1.251569  0  -0.233756  -0.595607  0  2.24737  0
O  O174  1  0.51736912  0.80826207  0.70338655  1  -1.208323  0  -0.201698  -0.541802  0  2.275231  0
O  O175  1  0.66986873  0.79596310  0.80660771  1  -1.252873  0  -0.239696  -0.602757  0  2.231719  0
O  O176  1  0.84333998  0.63803324  0.70389218  1  -1.235378  0  -0.223637  -0.584012  0  2.248644  0
O  O177  1  0.68554367  0.46394747  0.69904333  1  -1.249547  0  -0.243591  -0.611499  0  2.249394  0
O  O178  1  0.32308641  0.18896574  0.29731053  1  -1.204217  0  -0.209338  -0.55224  0  2.255544  0
O  O179  1  0.49819302  0.34218385  0.29456254  1  -1.243088  0  -0.225729  -0.583888  0  2.248609  0
O  O180  1  0.17793031  0.53845273  0.29702508  1  -1.26226  0  -0.242805  -0.608787  0  2.24121  0
O  O181  1  0.66683611  0.63112283  0.75408068  1  -1.615956  0  -0.391214  -1.27459  0  2.311901  0
O  O182  1  0.31602595  0.36229273  0.24417805  1  -1.621327  0  -0.390451  -1.271401  0  2.312921  0
O  O183  1  0.84320910  0.46954686  0.80881753  1  -1.237047  0  -0.223866  -0.582408  0  2.24035  0
O  O184  1  0.11386629  0.43707450  0.20462405  1  -1.205154  0  -0.199706  -0.543938  0  2.275946  0
O  O185  1  0.46005958  0.19378573  0.18954211  1  -1.249401  0  -0.240629  -0.60863  0  2.239988  0
O  O186  1  0.36986256  0.51136358  0.19226898  1  -1.239152  0  -0.221626  -0.577884  0  2.241504  0
O  O187  1  0.51631902  0.77231785  0.81156633  1  -1.218077  0  -0.211784  -0.563787  0  2.277856  0
O  O188  1  0.85526892  0.62740745  0.79838770  1  -1.248362  0  -0.227137  -0.592361  0  2.250303  0
O  O189  1  0.68568123  0.42248631  0.79347659  1  -1.254013  0  -0.239246  -0.596686  0  2.21923  0
O  O190  1  0.36674496  0.76572868  0.75074675  1  -1.369344  0  -0.574708  -0.994461  0  1.791379  0
O  O191  1  0.12468223  0.24835536  0.24943855  1  -1.374194  0  -0.573771  -0.991884  0  1.796319  0
