# generated using pymatgen
data_AlH24(C5O)6
_symmetry_space_group_name_H-M   'P 1'
_cell_length_a   3.94473771
_cell_length_b   29.06241546
_cell_length_c   29.06546659
_cell_angle_alpha   120.00843432
_cell_angle_beta   89.99731771
_cell_angle_gamma   90.00189849
_symmetry_Int_Tables_number   1
_chemical_formula_structural   AlH24(C5O)6
_chemical_formula_sum   'Al2 H48 C60 O12'
_cell_volume   2885.49849771
_cell_formula_units_Z   2
loop_
 _symmetry_equiv_pos_site_id
 _symmetry_equiv_pos_as_xyz
  1  'x, y, z'
loop_
 _atom_site_type_symbol
 _atom_site_label
 _atom_site_symmetry_multiplicity
 _atom_site_fract_x
 _atom_site_fract_y
 _atom_site_fract_z
 _atom_site_occupancy
 _atom_site_pbe_bader_charge
 _atom_site_pbe_bader_spin_density
 _atom_site_pbe_cm5_charge
 _atom_site_pbe_ddec_charge
 _atom_site_pbe_ddec_spin_density
 _atom_site_pbe_ddec_sum_bond_order
 _atom_site_pbe_magmom
Al  Al0  1  0.00039256  0.49998533  0.49999760  1  2.501313  0  0.423693  1.58612  0  2.573408  0
Al  Al1  1  0.99905769  0.16668628  0.83334734  1  2.501391  0  0.423829  1.584599  0  2.575681  0
H  H2  1  0.54545903  0.21625972  0.63627191  1  0.044968  0  0.101251  0.107102  0  0.997752  0
H  H3  1  0.45428932  0.36378422  0.78375745  1  0.042798  0  0.10101  0.106996  0  0.997835  0
H  H4  1  0.45563406  0.30289099  0.54958600  1  0.04194  0  0.101248  0.107289  0  0.997759  0
H  H5  1  0.54468420  0.45039320  0.69707929  1  0.04245  0  0.101318  0.107215  0  0.997675  0
H  H6  1  0.54540265  0.92000705  0.78373725  1  0.053305  0  0.101346  0.107292  0  0.997384  0
H  H7  1  0.45419540  0.91998660  0.63622981  1  0.10806  0  0.10101  0.106912  0  0.997992  0
H  H8  1  0.45551519  0.74668707  0.69708706  1  0.106229  0  0.101228  0.107189  0  0.997723  0
H  H9  1  0.54466720  0.74668080  0.54959563  1  0.05259  0  0.101286  0.107144  0  0.997806  0
H  H10  1  0.54538796  0.36375101  0.08000501  1  0.108284  0  0.10117  0.107059  0  0.997771  0
H  H11  1  0.45440327  0.21625302  0.08001891  1  0.052414  0  0.101109  0.107032  0  0.99797  0
H  H12  1  0.45554127  0.45038529  0.25331513  1  0.052519  0  0.101328  0.107314  0  0.997335  0
H  H13  1  0.54480684  0.30289715  0.25332322  1  0.108072  0  0.101186  0.107032  0  0.997784  0
H  H14  1  0.28814207  0.13131547  0.66929948  1  0.049502  0  0.093334  0.132599  0  1.010368  0
H  H15  1  0.69217837  0.13367680  0.69640152  1  0.05315  0  0.095417  0.134825  0  1.018265  0
H  H16  1  0.65499955  0.13580942  0.63637660  1  0.012876  0  0.089712  0.122218  0  0.999785  0
H  H17  1  0.71079416  0.33071301  0.86866243  1  0.051196  0  0.09313  0.132545  0  1.01087  0
H  H18  1  0.30667789  0.30368999  0.86637752  1  0.054813  0  0.095549  0.135078  0  1.018198  0
H  H19  1  0.34415807  0.36373090  0.86424925  1  0.010611  0  0.089446  0.121913  0  1.000147  0
H  H20  1  0.71232685  0.33594635  0.46461954  1  0.049339  0  0.093008  0.132261  0  1.010649  0
H  H21  1  0.30827024  0.36302865  0.46699424  1  0.051221  0  0.095416  0.134682  0  1.018356  0
H  H22  1  0.34563155  0.30296386  0.46908234  1  0.013086  0  0.089502  0.121742  0  0.999781  0
H  H23  1  0.28796698  0.53533445  0.66401369  1  0.049501  0  0.093302  0.13263  0  1.010242  0
H  H24  1  0.69214411  0.53300695  0.63697100  1  0.054459  0  0.095439  0.134766  0  1.018248  0
H  H25  1  0.65466397  0.53089467  0.69701348  1  0.012362  0  0.089594  0.121984  0  0.999668  0
H  H26  1  0.28809150  0.03798116  0.86869233  1  0.061168  0  0.093295  0.132539  0  1.010628  0
H  H27  1  0.69210432  0.06272102  0.86632356  1  0.050881  0  0.095396  0.134801  0  1.018362  0
H  H28  1  0.65493133  0.00055053  0.86418133  1  0.013467  0  0.089673  0.122109  0  0.999831  0
H  H29  1  0.71074479  0.03795664  0.66929361  1  0.053542  0  0.093106  0.13244  0  1.010922  0
H  H30  1  0.30666480  0.06270688  0.69632455  1  0.057267  0  0.095554  0.134972  0  1.018529  0
H  H31  1  0.34405646  0.00053338  0.63629075  1  0.013146  0  0.089458  0.122039  0  1.000015  0
H  H32  1  0.71233819  0.62866555  0.66403583  1  0.051418  0  0.09305  0.132235  0  1.010745  0
H  H33  1  0.30829095  0.60395411  0.63696929  1  0.057907  0  0.095329  0.134644  0  1.018465  0
H  H34  1  0.34564190  0.66611803  0.69702570  1  0.013791  0  0.089494  0.121778  0  0.999629  0
H  H35  1  0.28790348  0.62866781  0.46465207  1  0.060378  0  0.093184  0.132498  0  1.01023  0
H  H36  1  0.69211930  0.60395508  0.46698093  1  0.050884  0  0.095517  0.134807  0  1.018141  0
H  H37  1  0.65464602  0.66611198  0.46909686  1  0.014194  0  0.089524  0.121947  0  0.999658  0
H  H38  1  0.28802711  0.33073042  0.96204042  1  0.051448  0  0.093247  0.132553  0  1.010582  0
H  H39  1  0.69202308  0.30363044  0.93729639  1  0.05813  0  0.095465  0.134792  0  1.018324  0
H  H40  1  0.65487952  0.36366047  0.99946662  1  0.014101  0  0.089689  0.12197  0  0.999884  0
H  H41  1  0.71083392  0.13135559  0.96205258  1  0.063316  0  0.093141  0.13244  0  1.010865  0
H  H42  1  0.30670624  0.13362193  0.93729779  1  0.049214  0  0.09556  0.135009  0  1.018351  0
H  H43  1  0.34416633  0.13576113  0.99946627  1  0.020009  0  0.089519  0.12204  0  0.999855  0
H  H44  1  0.71221357  0.53537202  0.37133182  1  0.059929  0  0.093047  0.132352  0  1.010516  0
H  H45  1  0.30811515  0.53300277  0.39604677  1  0.051418  0  0.095309  0.13458  0  1.018437  0
H  H46  1  0.34552188  0.53089581  0.33388868  1  0.013794  0  0.089517  0.121748  0  0.999736  0
H  H47  1  0.28800082  0.33596451  0.37133166  1  0.051016  0  0.093203  0.1325  0  1.010355  0
H  H48  1  0.69218025  0.36302163  0.39603969  1  0.058817  0  0.095461  0.134792  0  1.018308  0
H  H49  1  0.65470796  0.30297428  0.33388750  1  0.012241  0  0.089511  0.121928  0  0.999746  0
C  C50  1  0.50026713  0.45876795  0.41754525  1  1.601265  0  0.279099  0.672188  0  4.041581  0
C  C51  1  0.50037872  0.45875547  0.54122130  1  1.550435  0  0.278958  0.671983  0  4.042099  0
C  C52  1  0.50037552  0.58244495  0.54122275  1  1.598761  0  0.279069  0.672796  0  4.041062  0
C  C53  1  0.49931743  0.20790140  0.79210810  1  1.548726  0  0.27903  0.672092  0  4.041044  0
C  C54  1  0.49922429  0.08422211  0.79212400  1  1.523484  0  0.279102  0.672348  0  4.041289  0
C  C55  1  0.49916538  0.20791350  0.91579880  1  1.601999  0  0.279116  0.672394  0  4.041481  0
C  C56  1  0.49906861  0.23755983  0.76247372  1  0.065083  0  -0.011728  -0.162172  0  3.864369  0
C  C57  1  0.51918226  0.20905740  0.70647226  1  -0.034061  0  -0.001425  0.168105  0  3.968373  0
C  C58  1  0.52370906  0.23740728  0.67948700  1  0.018547  0  -0.087981  -0.198659  0  3.919845  0
C  C59  1  0.49967314  0.29318050  0.70685567  1  0.128127  0  0.00211  0.158833  0  4.151915  0
C  C60  1  0.47575441  0.32055955  0.76263004  1  0.022226  0  -0.08796  -0.19932  0  3.9203  0
C  C61  1  0.47933196  0.29357171  0.79098206  1  -0.037311  0  -0.001315  0.168742  0  3.967529  0
C  C62  1  0.50031387  0.32122702  0.67879198  1  -0.298951  0  -0.04395  -0.105316  0  4.10892  0
C  C63  1  0.50059402  0.34543931  0.65453416  1  -0.078833  0  -0.043403  -0.104668  0  4.10909  0
C  C64  1  0.50045903  0.37348662  0.62648001  1  0.127553  0  0.001882  0.158761  0  4.152505  0
C  C65  1  0.47679285  0.34611112  0.57071380  1  0.021436  0  -0.088115  -0.199378  0  3.920686  0
C  C66  1  0.48082290  0.37309402  0.54236396  1  -0.035743  0  -0.001405  0.168267  0  3.968273  0
C  C67  1  0.50033601  0.42910551  0.57087130  1  0.06475  0  -0.011718  -0.162289  0  3.864569  0
C  C68  1  0.51978646  0.45760903  0.62687922  1  -0.035053  0  -0.001224  0.168577  0  3.967895  0
C  C69  1  0.52394212  0.42925717  0.65385887  1  0.022177  0  -0.087969  -0.198864  0  3.920197  0
C  C70  1  0.49897992  0.02492461  0.76245562  1  -0.049345  0  -0.01188  -0.162739  0  3.864729  0
C  C71  1  0.51906817  0.99741883  0.79094907  1  -0.061992  0  -0.001326  0.168305  0  3.968503  0
C  C72  1  0.52351610  0.94207597  0.76259218  1  -0.050848  0  -0.088108  -0.198994  0  3.919627  0
C  C73  1  0.49955329  0.91367873  0.70682207  1  0.203289  0  0.00194  0.158661  0  4.15236  0
C  C74  1  0.47568534  0.94207803  0.67945096  1  -0.177802  0  -0.087769  -0.198883  0  3.920178  0
C  C75  1  0.47925332  0.99742512  0.70644739  1  0.176194  0  -0.001352  0.168933  0  3.967118  0
C  C76  1  0.50014539  0.85756216  0.67876931  1  -0.297007  0  -0.043769  -0.1053  0  4.11012  0
C  C77  1  0.50041027  0.80909167  0.65454671  1  -0.084983  0  -0.043521  -0.104614  0  4.110167  0
C  C78  1  0.50029256  0.75298397  0.62649885  1  0.202979  0  0.001991  0.158827  0  4.153117  0
C  C79  1  0.47674544  0.72459261  0.65387099  1  -0.176401  0  -0.087976  -0.199123  0  3.921167  0
C  C80  1  0.48080788  0.66925358  0.62688577  1  0.17635  0  -0.001438  0.168335  0  3.968658  0
C  C81  1  0.50025993  0.64175226  0.57087512  1  -0.097644  0  -0.011829  -0.162952  0  3.864895  0
C  C82  1  0.51971056  0.66925985  0.54237650  1  -0.09234  0  -0.001207  0.168759  0  3.968164  0
C  C83  1  0.52388424  0.72459853  0.57073274  1  -0.050949  0  -0.088062  -0.198961  0  3.920991  0
C  C84  1  0.49900453  0.23753978  0.97508957  1  -0.093052  0  -0.011729  -0.162282  0  3.864801  0
C  C85  1  0.51910169  0.29354582  0.00258998  1  0.175946  0  -0.001228  0.168419  0  3.96833  0
C  C86  1  0.52354483  0.32053282  0.05792846  1  -0.177756  0  -0.088104  -0.198899  0  3.920019  0
C  C87  1  0.49961483  0.29316390  0.08632701  1  0.14588  0  0.001935  0.158478  0  4.152076  0
C  C88  1  0.47566036  0.23738639  0.05793052  1  -0.04973  0  -0.087646  -0.198741  0  3.920163  0
C  C89  1  0.47925826  0.20903464  0.00258833  1  -0.098265  0  -0.001483  0.168521  0  3.967585  0
C  C90  1  0.50016919  0.32121949  0.14244209  1  -0.45266  0  -0.043732  -0.10495  0  4.109494  0
C  C91  1  0.50049367  0.34543887  0.19090833  1  0.127304  0  -0.043556  -0.104936  0  4.109841  0
C  C92  1  0.50041174  0.37349311  0.24701650  1  0.203869  0  0.002027  0.158808  0  4.152817  0
C  C93  1  0.47667990  0.42926346  0.27540847  1  -0.050077  0  -0.088135  -0.199123  0  3.920353  0
C  C94  1  0.48077073  0.45762130  0.33074320  1  -0.092776  0  -0.00137  0.168434  0  3.96872  0
C  C95  1  0.50025306  0.42911977  0.35824610  1  -0.097313  0  -0.011718  -0.162527  0  3.864973  0
C  C96  1  0.51972848  0.37310684  0.33074342  1  0.175749  0  -0.001315  0.168477  0  3.967951  0
C  C97  1  0.52394751  0.34612059  0.27540763  1  -0.178201  0  -0.088073  -0.198991  0  3.920668  0
C  C98  1  0.54126651  0.14933792  0.67557014  1  -0.075271  0  -0.238962  -0.414382  0  3.95937  0
C  C99  1  0.45755751  0.32450661  0.85070079  1  -0.077262  0  -0.238672  -0.414431  0  3.95979  0
C  C100  1  0.45919017  0.34218399  0.48264173  1  -0.074232  0  -0.238441  -0.413338  0  3.958847  0
C  C101  1  0.54117786  0.51733833  0.65779489  1  -0.076144  0  -0.238983  -0.414394  0  3.958776  0
C  C102  1  0.54118996  0.02622307  0.85066237  1  -0.022116  0  -0.238884  -0.414175  0  3.959663  0
C  C103  1  0.45750751  0.02620745  0.67551157  1  -0.073189  0  -0.238756  -0.414553  0  3.959811  0
C  C104  1  0.45920467  0.64045269  0.65780566  1  -0.072231  0  -0.238319  -0.413196  0  3.958826  0
C  C105  1  0.54111751  0.64044865  0.48265284  1  -0.021346  0  -0.238851  -0.41421  0  3.958572  0
C  C106  1  0.54112719  0.32446133  0.97379375  1  -0.072276  0  -0.238871  -0.414064  0  3.95946  0
C  C107  1  0.45755646  0.14931022  0.97379417  1  -0.028515  0  -0.238783  -0.414421  0  3.959658  0
C  C108  1  0.45907713  0.51734868  0.35955320  1  -0.021701  0  -0.238366  -0.413401  0  3.958896  0
C  C109  1  0.54118028  0.34219491  0.35955207  1  -0.070789  0  -0.238749  -0.414071  0  3.958725  0
O  O110  1  0.73566410  0.55863417  0.55140879  1  -1.261348  0  -0.234714  -0.598063  0  2.375057  0
O  O111  1  0.73562201  0.49275649  0.44135716  1  -1.258303  0  -0.234867  -0.597796  0  2.375143  0
O  O112  1  0.73570616  0.44857116  0.50722816  1  -1.261381  0  -0.234851  -0.597966  0  2.37536  0
O  O113  1  0.26498676  0.55863570  0.50724106  1  -1.257175  0  -0.234735  -0.598184  0  2.375698  0
O  O114  1  0.26503985  0.49274511  0.55139785  1  -1.262749  0  -0.234635  -0.597765  0  2.375543  0
O  O115  1  0.26491487  0.44858258  0.44134954  1  -1.261519  0  -0.234763  -0.597951  0  2.375467  0
O  O116  1  0.73446283  0.17391832  0.89197816  1  -1.259676  0  -0.234793  -0.597811  0  2.375887  0
O  O117  1  0.73455867  0.21809175  0.82611354  1  -1.261893  0  -0.234783  -0.597673  0  2.375667  0
O  O118  1  0.73452721  0.10804003  0.78194777  1  -1.26291  0  -0.234624  -0.597583  0  2.375661  0
O  O119  1  0.26402755  0.21810298  0.89197688  1  -1.261686  0  -0.234851  -0.597689  0  2.374888  0
O  O120  1  0.26403170  0.10805221  0.82612981  1  -1.257308  0  -0.234838  -0.597663  0  2.37505  0
O  O121  1  0.26411298  0.17389705  0.78193205  1  -1.261941  0  -0.234759  -0.597636  0  2.374706  0
