# generated using pymatgen
data_Zn2H29C36N8F3
_symmetry_space_group_name_H-M   'P 1'
_cell_length_a   15.40190333
_cell_length_b   14.46325156
_cell_length_c   17.46084718
_cell_angle_alpha   106.02950382
_cell_angle_beta   105.48791132
_cell_angle_gamma   113.06796231
_symmetry_Int_Tables_number   1
_chemical_formula_structural   Zn2H29C36N8F3
_chemical_formula_sum   'Zn4 H58 C72 N16 F6'
_cell_volume   3114.44181020
_cell_formula_units_Z   2
loop_
 _symmetry_equiv_pos_site_id
 _symmetry_equiv_pos_as_xyz
  1  'x, y, z'
loop_
 _atom_site_type_symbol
 _atom_site_label
 _atom_site_symmetry_multiplicity
 _atom_site_fract_x
 _atom_site_fract_y
 _atom_site_fract_z
 _atom_site_occupancy
 _atom_site_pbe_bader_charge
 _atom_site_pbe_bader_spin_density
 _atom_site_pbe_cm5_charge
 _atom_site_pbe_ddec_charge
 _atom_site_pbe_ddec_spin_density
 _atom_site_pbe_ddec_sum_bond_order
 _atom_site_pbe_magmom
Zn  Zn0  1  0.95520977  0.61988176  0.09183625  1  1.205765  0  0.742906  0.64562  0  2.449598  0
Zn  Zn1  1  0.02952132  0.32391229  0.86978042  1  1.167046  0  0.754937  0.640238  0  2.399796  0
Zn  Zn2  1  0.10957750  0.62006837  0.99212462  1  1.206642  0  0.762675  0.691767  0  2.335719  0
Zn  Zn3  1  0.93510545  0.32846100  0.99398133  1  1.180556  0  0.735976  0.610691  0  2.474551  0
H  H4  1  0.87385415  0.75336535  0.02954526  1  0.11504  0  0.119709  0.11238  0  1.00402  0
H  H5  1  0.14621463  0.30461302  0.03331888  1  0.101806  0  0.116557  0.103928  0  1.078661  0
H  H6  1  0.08549383  0.11650778  0.86255098  1  0.072691  0  0.119468  0.112517  0  0.994278  0
H  H7  1  0.87367005  0.26290112  0.14148929  1  0.079891  0  0.113165  0.09663  0  1.073012  0
H  H8  1  0.30741081  0.66037180  0.12111141  1  0.148762  0  0.119749  0.110354  0  1.019916  0
H  H9  1  0.63293609  0.66193971  0.21998183  1  0.080287  0  0.105058  0.131987  0  0.994064  0
H  H10  1  0.25932248  0.22650046  0.95585235  1  0.024328  0  0.085064  0.087457  0  1.039013  0
H  H11  1  0.82105464  0.24189936  0.68667654  1  0.101825  0  0.116039  0.106011  0  1.004805  0
H  H12  1  0.26003562  0.31572991  0.90236178  1  0.028545  0  0.086177  0.088856  0  1.000834  0
H  H13  1  0.42556570  0.24770614  0.95079937  1  0.044763  0  0.090906  0.09467  0  0.99356  0
H  H14  1  0.42630139  0.33646886  0.89692159  1  0.037835  0  0.092908  0.097381  0  0.988639  0
H  H15  1  0.44136507  0.04995797  0.29822724  1  0.086446  0  0.100484  0.107376  0  1.004584  0
H  H16  1  0.36617137  0.01993861  0.60893121  1  0.090046  0  0.09817  0.108483  0  1.013171  0
H  H17  1  0.59501740  0.19604774  0.43545397  1  0.067916  0  0.103888  0.112408  0  0.999634  0
H  H18  1  0.93492315  0.31165505  0.55679478  1  0.055124  0  0.100343  0.103235  0  1.002434  0
H  H19  1  0.03684385  0.62202457  0.81135385  1  0.102396  0  0.124157  0.11464  0  1.000776  0
H  H20  1  0.08434452  0.66790171  0.69751366  1  0.032846  0  0.098107  0.097048  0  1.009044  0
H  H21  1  0.85955698  0.22438726  0.39322339  1  0.058059  0  0.099298  0.101211  0  1.019742  0
H  H22  1  0.04773712  0.68576930  0.55729422  1  0.102207  0  0.102637  0.105324  0  1.00273  0
H  H23  1  0.84380053  0.24485128  0.25580115  1  0.079227  0  0.098359  0.094907  0  1.031767  0
H  H24  1  0.10096116  0.99545002  0.95019689  1  0.043327  0  0.097104  0.071351  0  1.006813  0
H  H25  1  0.21729628  0.21355682  0.05178609  1  0.065167  0  0.09061  0.094734  0  1.066943  0
H  H26  1  0.21869702  0.05934333  0.28180305  1  0.046798  0  0.09489  0.113497  0  0.996148  0
H  H27  1  0.15154586  0.12505621  0.31950156  1  0.065561  0  0.099988  0.114495  0  0.984904  0
H  H28  1  0.05480326  0.88946644  0.17766804  1  0.053209  0  0.089087  0.059643  0  1.042532  0
H  H29  1  0.59458795  0.37633666  0.95911025  1  0.058723  0  0.103145  0.082505  0  1.055436  0
H  H30  1  0.07836594  0.34225874  0.70696867  1  0.102774  0  0.120628  0.110185  0  0.988918  0
H  H31  1  0.79964285  0.68880151  0.19294303  1  0.079227  0  0.109247  0.097697  0  1.021055  0
H  H32  1  0.72234382  0.34320283  0.89036895  1  0.151685  0  0.1176  0.109816  0  1.056918  0
H  H33  1  0.98412318  0.61514680  0.26069898  1  0.126144  0  0.112135  0.102598  0  1.040158  0
H  H34  1  0.73796386  0.95839440  0.06554596  1  0.041349  0  0.090388  0.122111  0  0.994515  0
H  H35  1  0.77303439  0.09637763  0.12922122  1  -0.008287  0  0.082696  0.104618  0  1.034781  0
H  H36  1  0.65417525  0.01062737  0.03317662  1  0.015732  0  0.08804  0.114288  0  1.015394  0
H  H37  1  0.78297400  0.14014777  0.99786995  1  -0.005048  0  0.084074  0.06601  0  1.017179  0
H  H38  1  0.75325240  0.00388141  0.93930039  1  0.039955  0  0.09439  0.090624  0  0.960598  0
H  H39  1  0.91298082  0.03678542  0.05984751  1  0.057777  0  0.093201  0.096146  0  1.036898  0
H  H40  1  0.95012420  0.17677157  0.11099517  1  0.04417  0  0.095327  0.095668  0  0.994827  0
H  H41  1  0.59578158  0.16096734  0.94087783  1  0.006954  0  0.084572  0.112102  0  1.00678  0
H  H42  1  0.46491279  0.05014751  0.87850655  1  0.013196  0  0.080208  0.10013  0  1.025668  0
H  H43  1  0.56757326  0.02083455  0.90705374  1  0.030939  0  0.084417  0.110876  0  1.022275  0
H  H44  1  0.50901680  0.98921401  0.74938204  1  0.004248  0  0.087735  0.078447  0  0.973103  0
H  H45  1  0.63699841  0.10312770  0.81143573  1  0.018237  0  0.084859  0.076217  0  1.002127  0
H  H46  1  0.56302210  0.23312361  0.82154410  1  0.029315  0  0.09279  0.090968  0  1.007686  0
H  H47  1  0.43710556  0.11674608  0.75847008  1  0.011306  0  0.090574  0.086923  0  0.982121  0
H  H48  1  0.76528310  0.92764201  0.20955417  1  0.034666  0  0.083787  0.108364  0  1.012743  0
H  H49  1  0.84193517  0.96116423  0.31962488  1  0.024035  0  0.083785  0.110147  0  1.002876  0
H  H50  1  0.82027756  0.06276948  0.29354988  1  -0.006706  0  0.081125  0.106645  0  1.033275  0
H  H51  1  0.99990223  0.10020983  0.31390601  1  0.029742  0  0.08679  0.073882  0  0.986294  0
H  H52  1  0.92481512  0.06683862  0.20464618  1  0.013145  0  0.082585  0.068289  0  1.021357  0
H  H53  1  0.88283230  0.86592251  0.16261691  1  0.017048  0  0.085662  0.077215  0  1.005487  0
H  H54  1  0.96678554  0.90627990  0.27137875  1  0.011824  0  0.087668  0.084171  0  0.984641  0
H  H55  1  0.31496754  0.89418221  0.89215216  1  0.009812  0  0.083115  0.104795  0  1.011433  0
H  H56  1  0.38178032  0.97730904  0.00779962  1  0.00168  0  0.088657  0.116672  0  0.995778  0
H  H57  1  0.39139098  0.85813259  0.96023021  1  0.038946  0  0.09037  0.119112  0  0.993137  0
H  H58  1  0.26907842  0.81786279  0.03200803  1  0.027791  0  0.083302  0.073573  0  1.030001  0
H  H59  1  0.20482473  0.73394791  0.91670998  1  0.007852  0  0.083021  0.066278  0  1.049463  0
H  H60  1  0.14132718  0.86434072  0.89550610  1  0.027107  0  0.092684  0.089275  0  0.978498  0
H  H61  1  0.20897413  0.95024898  0.00911490  1  0.058397  0  0.101722  0.111492  0  0.977033  0
C  C62  1  0.93597986  0.75731746  0.00993627  1  0.373312  0  0.008922  -0.037438  0  3.987939  0
C  C63  1  0.72467666  0.27195377  0.75732557  1  0.01682  0  -0.032777  -0.018565  0  4.033645  0
C  C64  1  0.04435440  0.48275769  0.72163870  1  0.068492  0  -0.029589  -0.027027  0  4.06685  0
C  C65  1  0.65825813  0.52693978  0.08589971  1  -0.015348  0  -0.048557  -0.054985  0  4.109651  0
C  C66  1  0.95913809  0.53020484  0.21896587  1  0.494264  0  0.012453  -0.037666  0  3.940718  0
C  C67  1  0.16938506  0.39020772  0.04563768  1  0.334685  0  0.005902  -0.049087  0  3.905927  0
C  C68  1  0.27314090  0.83341364  0.19946557  1  1.05029  0  0.200384  0.333751  0  4.107546  0
C  C69  1  0.96001968  0.12642429  0.98766663  1  0.429032  0  0.100039  0.177672  0  3.920268  0
C  C70  1  0.04097317  0.12737736  0.89964436  1  0.36238  0  0.005506  -0.064967  0  4.035839  0
C  C71  1  0.15923302  0.81371680  0.25210633  1  1.062292  0  0.200669  0.33031  0  4.115648  0
C  C72  1  0.90143957  0.35018532  0.15800724  1  0.40898  0  0.007883  -0.057603  0  3.970034  0
C  C73  1  0.81208996  0.27063804  0.74682463  1  0.423721  0  0.014309  -0.03411  0  3.973216  0
C  C74  1  0.25111350  0.57223226  0.09236122  1  0.372718  0  0.024557  -0.017608  0  3.907391  0
C  C75  1  0.92470888  0.43546900  0.23593218  1  -0.062437  0  -0.034512  -0.013503  0  4.072436  0
C  C76  1  0.26925246  0.48341932  0.08960473  1  0.102676  0  -0.02451  0.015447  0  4.048368  0
C  C77  1  0.26684271  0.88025959  0.27885054  1  0.033245  0  -0.049686  -0.254208  0  4.117797  0
C  C78  1  0.02382721  0.08759598  0.96210989  1  0.035934  0  -0.030027  -0.068641  0  3.939101  0
C  C79  1  0.46774597  0.41823108  0.03963150  1  0.023264  0  -0.025643  -0.003103  0  3.89938  0
C  C80  1  0.56564294  0.51087933  0.09972382  1  -0.013967  0  -0.003916  0.080311  0  4.070536  0
C  C81  1  0.56177679  0.58752254  0.16792513  1  -0.011549  0  -0.111434  -0.27886  0  3.986433  0
C  C82  1  0.46725339  0.57389391  0.16846298  1  0.385144  0  0.091412  0.24038  0  4.062847  0
C  C83  1  0.36802186  0.48498512  0.10480198  1  0.06289  0  -0.027096  -0.091537  0  4.06346  0
C  C84  1  0.05410707  0.55481962  0.80020294  1  0.383808  0  0.020906  -0.026189  0  3.961364  0
C  C85  1  0.37473781  0.40629313  0.04243693  1  -0.031801  0  -0.016931  0.04079  0  3.930434  0
C  C86  1  0.30809663  0.30461068  0.95435276  1  -0.042442  0  -0.159794  -0.199159  0  3.903533  0
C  C87  1  0.41339756  0.31790063  0.95122988  1  -0.047756  0  -0.154519  -0.184748  0  3.891865  0
C  C88  1  0.35141105  0.97190946  0.36161207  1  0.092622  0  -0.021927  0.011025  0  4.090589  0
C  C89  1  0.62200366  0.21664698  0.68281618  1  0.033959  0  -0.014628  -0.074649  0  3.996221  0
C  C90  1  0.43742583  0.07468438  0.60688749  1  -0.014454  0  -0.103574  -0.205824  0  4.004721  0
C  C91  1  0.52592987  0.14775098  0.68474855  1  -0.031022  0  -0.006607  0.098829  0  3.949784  0
C  C92  1  0.61630372  0.21506398  0.60156489  1  0.435521  0  0.094669  0.185322  0  4.003284  0
C  C93  1  0.52780309  0.14201723  0.52059867  1  -0.001341  0  -0.019888  -0.019382  0  4.069303  0
C  C94  1  0.43704811  0.06605879  0.52406088  1  0.034999  0  -0.019421  -0.007656  0  4.082443  0
C  C95  1  0.65901871  0.45453032  0.01257834  1  0.461316  0  -0.008758  -0.060482  0  4.04892  0
C  C96  1  0.35225488  0.98256005  0.44326090  1  0.417224  0  0.095641  0.184032  0  3.993005  0
C  C97  1  0.44118258  0.05407251  0.36141186  1  -0.068229  0  -0.094859  -0.122542  0  4.009392  0
C  C98  1  0.52692288  0.13616294  0.43790355  1  0.047417  0  -0.098702  -0.130752  0  4.030003  0
C  C99  1  0.01486222  0.48818084  0.63681603  1  0.060943  0  -0.01066  0.088033  0  4.058888  0
C  C100  1  0.92118528  0.42510259  0.31584537  1  0.11564  0  -0.018417  -0.025066  0  4.073237  0
C  C101  1  0.88941139  0.30683553  0.39415635  1  -0.0253  0  -0.09987  -0.156399  0  4.036815  0
C  C102  1  0.88093079  0.31871960  0.31757667  1  -0.084355  0  -0.093322  -0.112792  0  4.016709  0
C  C103  1  0.96211741  0.51568581  0.39531116  1  0.407424  0  0.099926  0.187481  0  3.991972  0
C  C104  1  0.97418875  0.50900876  0.47628806  1  0.00222  0  -0.017487  -0.030965  0  4.03845  0
C  C105  1  0.93997842  0.40140651  0.47614049  1  -0.010626  0  -0.007137  0.099452  0  4.035132  0
C  C106  1  0.07343219  0.41115488  0.74642317  1  0.37591  0  0.006473  -0.053478  0  3.966046  0
C  C107  1  0.96117499  0.39389663  0.55742736  1  -0.051492  0  -0.090478  -0.18291  0  3.937425  0
C  C108  1  0.04328784  0.59373676  0.63525429  1  -0.060382  0  -0.0948  -0.134714  0  4.002864  0
C  C109  1  0.02341529  0.60427325  0.55742528  1  -0.067133  0  -0.091524  -0.111788  0  4.019611  0
C  C110  1  0.04896623  0.00761441  0.12571556  1  -0.115172  0  -0.010669  -0.029386  0  3.770447  0
C  C111  1  0.03654249  0.96151883  0.03973049  1  0.013741  0  0.00184  0.051005  0  3.85451  0
C  C112  1  0.08466877  0.03856149  0.00218209  1  0.030646  0  -0.066792  -0.024309  0  3.871538  0
C  C113  1  0.18577876  0.15366012  0.07735820  1  -0.275815  0  -0.096791  -0.116487  0  3.935533  0
C  C114  1  0.20730781  0.17826274  0.16161977  1  0.083969  0  -0.136234  -0.245539  0  3.779064  0
C  C115  1  0.14456655  0.11065945  0.18822251  1  -0.041566  0  0.002816  0.125862  0  3.960047  0
C  C116  1  0.15205803  0.07236787  0.26084430  1  -0.043533  0  -0.15357  -0.233432  0  3.834695  0
C  C117  1  0.76252152  0.61424529  0.13199529  1  0.383822  0  -0.006349  -0.065236  0  3.998421  0
C  C118  1  0.04542731  0.96289011  0.19523783  1  0.005203  0  -0.083633  -0.006413  0  3.840123  0
C  C119  1  0.75844059  0.31857617  0.84929861  1  0.376466  0  0.015688  -0.028841  0  3.924933  0
C  C120  1  0.07118567  0.80319811  0.97478343  1  0.4291  0  0.093653  0.163095  0  3.922057  0
C  C121  1  0.00999291  0.84538579  0.00245405  1  0.022531  0  -0.037954  -0.102195  0  4.063867  0
C  C122  1  0.90703096  0.10419116  0.04622117  1  -0.023364  0  -0.162226  -0.224637  0  3.968741  0
C  C123  1  0.79153317  0.07093180  0.00622530  1  0.00016  0  -0.164017  -0.090349  0  3.963479  0
C  C124  1  0.73606918  0.03207322  0.06131106  1  -0.04096  0  -0.243266  -0.35567  0  3.959533  0
C  C125  1  0.51916542  0.14775928  0.76939404  1  -0.007451  0  -0.158601  -0.191356  0  3.959021  0
C  C126  1  0.55566488  0.07492099  0.80162522  1  0.024761  0  -0.165049  -0.089654  0  3.956921  0
C  C127  1  0.54556712  0.07680136  0.88663761  1  -0.054772  0  -0.246622  -0.356291  0  3.977902  0
C  C128  1  0.95356785  0.93656499  0.22026271  1  0.005786  0  -0.162287  -0.173805  0  3.941157  0
C  C129  1  0.93256654  0.03178556  0.25292726  1  -0.03823  0  -0.168967  -0.09279  0  3.973609  0
C  C130  1  0.83480844  0.99400474  0.26982689  1  -0.049726  0  -0.24589  -0.358298  0  3.98753  0
C  C131  1  0.16599624  0.86264009  0.96047788  1  -0.010338  0  -0.153705  -0.205825  0  3.958051  0
C  C132  1  0.24278684  0.81936317  0.96745336  1  -0.016291  0  -0.174452  -0.101466  0  3.9577  0
C  C133  1  0.33807438  0.89136377  0.95643661  1  -0.031804  0  -0.241389  -0.34572  0  3.961568  0
N  N134  1  0.95137562  0.66950035  0.99070553  1  -0.758876  0  -0.282328  -0.200045  0  3.482781  0
N  N135  1  0.09630056  0.41979226  0.01795492  1  -0.847046  0  -0.290188  -0.21572  0  3.553184  0
N  N136  1  0.18270487  0.75136835  0.13432756  1  -0.789317  0  -0.267655  -0.308261  0  3.452815  0
N  N137  1  0.94459263  0.18783414  0.94491763  1  -0.791539  0  -0.275939  -0.234331  0  3.460808  0
N  N138  1  0.99458654  0.18805949  0.89008673  1  -0.798761  0  -0.297071  -0.204788  0  3.618207  0
N  N139  1  0.10931313  0.73907083  0.16808394  1  -0.800065  0  -0.281249  -0.283344  0  3.558356  0
N  N140  1  0.92031607  0.39124846  0.10004485  1  -0.794812  0  -0.284357  -0.160133  0  3.629213  0
N  N141  1  0.14876567  0.53347839  0.04902179  1  -0.774774  0  -0.285619  -0.184677  0  3.605334  0
N  N142  1  0.88924066  0.31045830  0.82538438  1  -0.812458  0  -0.295349  -0.195789  0  3.650198  0
N  N143  1  0.08682981  0.52929352  0.86653199  1  -0.804025  0  -0.276735  -0.204595  0  3.559251  0
N  N144  1  0.75355879  0.49415704  0.01360776  1  -0.748991  0  -0.274373  -0.238141  0  3.306267  0
N  N145  1  0.09993212  0.43978464  0.83383013  1  -0.799844  0  -0.294501  -0.203932  0  3.545597  0
N  N146  1  0.81746221  0.59337442  0.08754866  1  -0.810996  0  -0.295094  -0.204056  0  3.64035  0
N  N147  1  0.85724599  0.34077925  0.88924386  1  -0.809088  0  -0.291587  -0.207697  0  3.578941  0
N  N148  1  0.03415367  0.69839164  0.96837498  1  -0.801107  0  -0.288737  -0.238206  0  3.571368  0
N  N149  1  0.95616915  0.50295959  0.13777991  1  -0.779266  0  -0.267874  -0.177437  0  3.523975  0
F  F150  1  0.36044115  0.86153418  0.18541328  1  -0.643512  0  -0.084265  -0.139241  0  1.354599  0
F  F151  1  0.10272753  0.82006783  0.29831531  1  -0.640172  0  -0.078559  -0.127716  0  1.388476  0
F  F152  1  0.47120998  0.65627066  0.23401992  1  -0.641189  0  -0.121616  -0.163603  0  1.305702  0
F  F153  1  0.26952016  0.90557775  0.44790574  1  -0.635754  0  -0.104304  -0.141205  0  1.369415  0
F  F154  1  0.70399034  0.28427123  0.59677010  1  -0.638269  0  -0.100435  -0.144816  0  1.360681  0
F  F155  1  0.99898752  0.62001025  0.39817086  1  -0.634651  0  -0.095011  -0.135637  0  1.357992  0
