# generated using pymatgen
data_AlH21(C6O)6
_symmetry_space_group_name_H-M   'P 1'
_cell_length_a   3.97654141
_cell_length_b   20.40473392
_cell_length_c   20.46014057
_cell_angle_alpha   60.09972586
_cell_angle_beta   86.18194087
_cell_angle_gamma   86.12257329
_symmetry_Int_Tables_number   1
_chemical_formula_structural   AlH21(C6O)6
_chemical_formula_sum   'Al1 H21 C36 O6'
_cell_volume   1434.83501880
_cell_formula_units_Z   1
loop_
 _symmetry_equiv_pos_site_id
 _symmetry_equiv_pos_as_xyz
  1  'x, y, z'
loop_
 _atom_site_type_symbol
 _atom_site_label
 _atom_site_symmetry_multiplicity
 _atom_site_fract_x
 _atom_site_fract_y
 _atom_site_fract_z
 _atom_site_occupancy
 _atom_site_pbe_bader_charge
 _atom_site_pbe_bader_spin_density
 _atom_site_pbe_cm5_charge
 _atom_site_pbe_ddec_charge
 _atom_site_pbe_ddec_spin_density
 _atom_site_pbe_ddec_sum_bond_order
 _atom_site_pbe_magmom
Al  Al0  1  0.04168691  0.49912669  0.50020638  1  2.506231  0  0.425088  1.595383  0  2.575895  0
H  H1  1  0.84167261  0.30744273  0.70615642  1  0.087153  0  0.11  0.114919  0  0.987748  0
H  H2  1  0.82169870  0.23447408  0.84713526  1  0.063306  0  0.104472  0.108125  0  0.990588  0
H  H3  1  0.24436590  0.70918162  0.30829317  1  0.093031  0  0.109886  0.114699  0  0.987068  0
H  H4  1  0.24134288  0.85056022  0.23690016  1  0.05664  0  0.104351  0.10868  0  0.989967  0
H  H5  1  0.28746664  0.31064029  0.48311373  1  0.134958  0  0.110154  0.115518  0  0.987376  0
H  H6  1  0.30014714  0.23938310  0.41295218  1  0.071626  0  0.104036  0.107713  0  0.99231  0
H  H7  1  0.78077053  0.70629828  0.48524086  1  0.099544  0  0.110227  0.114993  0  0.986695  0
H  H8  1  0.75726928  0.84766723  0.41729219  1  0.054283  0  0.104635  0.108338  0  0.989877  0
H  H9  1  0.18376761  0.48117273  0.71048481  1  0.067503  0  0.109392  0.11337  0  0.987455  0
H  H10  1  0.18246631  0.41173893  0.85150344  1  0.088763  0  0.103856  0.106645  0  0.992345  0
H  H11  1  0.88796614  0.48174189  0.30501458  1  0.094126  0  0.109718  0.113908  0  0.987677  0
H  H12  1  0.88232686  0.41392055  0.23160961  1  0.095526  0  0.104751  0.108511  0  0.990256  0
H  H13  1  0.78982031  0.09553067  0.34754976  1  0.069956  0  0.094502  0.135342  0  1.002884  0
H  H14  1  0.50094525  0.02839936  0.35601493  1  0.029819  0  0.090459  0.130116  0  1.016344  0
H  H15  1  0.35432737  0.11427327  0.35405681  1  0.049104  0  0.092242  0.126757  0  1.009158  0
H  H16  1  0.75401671  0.34667108  0.03273547  1  0.056127  0  0.092383  0.128757  0  1.010023  0
H  H17  1  0.61719427  0.35475388  0.11380445  1  0.040803  0  0.090247  0.129835  0  1.016363  0
H  H18  1  0.32081604  0.35735684  0.05094727  1  0.058972  0  0.093432  0.131738  0  1.003123  0
H  H19  1  0.65418548  0.03713327  0.10292025  1  0.030881  0  0.091868  0.127267  0  1.008421  0
H  H20  1  0.43950277  0.11646852  0.02855915  1  0.087426  0  0.090591  0.131419  0  1.014391  0
H  H21  1  0.21362454  0.04838914  0.11041382  1  0.028606  0  0.09362  0.13254  0  1.008899  0
C  C22  1  0.52333763  0.44091201  0.61635229  1  1.611712  0  0.272981  0.647256  0  4.068567  0
C  C23  1  0.57728790  0.44143657  0.44114580  1  1.567945  0  0.272125  0.64564  0  4.070496  0
C  C24  1  0.52295813  0.61559016  0.44231014  1  1.539246  0  0.272941  0.64634  0  4.07186  0
C  C25  1  0.69319824  0.32887903  0.73870324  1  -0.051439  0  -0.078121  -0.083739  0  3.987788  0
C  C26  1  0.68258839  0.28852191  0.81697220  1  0.038064  0  -0.083558  -0.131706  0  3.958743  0
C  C27  1  0.36051518  0.74019615  0.33090164  1  -0.019183  0  -0.078347  -0.084738  0  3.987513  0
C  C28  1  0.35786489  0.81867573  0.29144301  1  0.001638  0  -0.083472  -0.131627  0  3.957437  0
C  C29  1  0.42255914  0.33176889  0.42870536  1  -0.064393  0  -0.079043  -0.084778  0  3.988221  0
C  C30  1  0.42927809  0.29233016  0.38965090  1  0.010751  0  -0.083286  -0.131364  0  3.960078  0
C  C31  1  0.65790409  0.73861575  0.43151945  1  0.055858  0  -0.077862  -0.083053  0  3.983809  0
C  C32  1  0.64534403  0.81709952  0.39365591  1  -0.070421  0  -0.08366  -0.132349  0  3.956656  0
C  C33  1  0.32694236  0.42776594  0.74109957  1  -0.108658  0  -0.078145  -0.082909  0  3.984478  0
C  C34  1  0.32536121  0.38904302  0.81937916  1  0.045103  0  -0.083325  -0.129795  0  3.957637  0
C  C35  1  0.75602830  0.42924087  0.32748602  1  -0.063201  0  -0.077806  -0.082787  0  3.98526  0
C  C36  1  0.75364788  0.39140067  0.28686761  1  -0.039723  0  -0.084367  -0.13291  0  3.956201  0
C  C37  1  0.51347545  0.39843692  0.70014608  1  -0.082632  0  -0.010767  -0.043508  0  3.964245  0
C  C38  1  0.50121068  0.31842678  0.85862808  1  0.163965  0  0.002396  0.139018  0  4.118919  0
C  C39  1  0.49806601  0.27835766  0.93845238  1  -0.290067  0  -0.041739  -0.121246  0  4.093987  0
C  C40  1  0.49932427  0.24327928  0.00727680  1  -0.179045  0  -0.034527  -0.064734  0  4.129036  0
C  C41  1  0.50711061  0.20426158  0.08711517  1  0.093201  0  -0.006921  -0.003556  0  4.087456  0
C  C42  1  0.51307472  0.69954053  0.40086148  1  -0.003382  0  -0.010879  -0.043094  0  3.963754  0
C  C43  1  0.49777222  0.85845621  0.32252340  1  0.063607  0  0.00227  0.140441  0  4.121059  0
C  C44  1  0.49283641  0.93840338  0.28289165  1  -0.036515  0  -0.041694  -0.121018  0  4.097057  0
C  C45  1  0.49318076  0.00742480  0.24910130  1  -0.362642  0  -0.034957  -0.065601  0  4.129912  0
C  C46  1  0.50185330  0.08737849  0.20809726  1  0.089271  0  -0.006434  -0.002972  0  4.086193  0
C  C47  1  0.58764486  0.40019143  0.39830220  1  -0.017951  0  -0.01079  -0.043884  0  3.963086  0
C  C48  1  0.59169633  0.32203175  0.31753203  1  0.071179  0  0.002651  0.141105  0  4.119872  0
C  C49  1  0.58583173  0.28296529  0.27674483  1  -0.502478  0  -0.042272  -0.122416  0  4.095988  0
C  C50  1  0.57052423  0.24900382  0.24201723  1  0.134899  0  -0.034  -0.063703  0  4.127285  0
C  C51  1  0.54655002  0.20806395  0.20345095  1  0.05333  0  -0.006646  -0.003757  0  4.086879  0
C  C52  1  0.48631258  0.12483364  0.12843830  1  0.049718  0  0.012312  0.111548  0  3.890361  0
C  C53  1  0.52974767  0.12827203  0.24628543  1  0.105697  0  0.012471  0.111435  0  3.888672  0
C  C54  1  0.53823647  0.24661078  0.12396703  1  0.035394  0  0.013438  0.114049  0  3.886526  0
C  C55  1  0.54316084  0.08894216  0.33054331  1  -0.076206  0  -0.237898  -0.406954  0  3.972553  0
C  C56  1  0.56018549  0.33088788  0.07842573  1  -0.09294  0  -0.237946  -0.407174  0  3.973519  0
C  C57  1  0.44703250  0.07988429  0.08987175  1  -0.070469  0  -0.237251  -0.406477  0  3.972479  0
O  O58  1  0.30328780  0.58248453  0.42744614  1  -1.261466  0  -0.239112  -0.596989  0  2.362014  0
O  O59  1  0.28225501  0.48894271  0.58358740  1  -1.255761  0  -0.239502  -0.596037  0  2.359601  0
O  O60  1  0.33615732  0.42692318  0.49045397  1  -1.266747  0  -0.241143  -0.604008  0  2.384089  0
O  O61  1  0.75175290  0.58161992  0.49055011  1  -1.267855  0  -0.239772  -0.600809  0  2.375138  0
O  O62  1  0.80624590  0.48830530  0.42663455  1  -1.254331  0  -0.237938  -0.592178  0  2.351573  0
O  O63  1  0.77401530  0.42649509  0.58241594  1  -1.257458  0  -0.240312  -0.599537  0  2.373173  0
