# generated using pymatgen
data_NiH12C14N2O5
_symmetry_space_group_name_H-M   'P 1'
_cell_length_a   10.00341905
_cell_length_b   16.30049116
_cell_length_c   16.42863877
_cell_angle_alpha   90.00006972
_cell_angle_beta   90.00001086
_cell_angle_gamma   89.99992931
_symmetry_Int_Tables_number   1
_chemical_formula_structural   NiH12C14N2O5
_chemical_formula_sum   'Ni4 H48 C56 N8 O20'
_cell_volume   2678.86441310
_cell_formula_units_Z   4
loop_
 _symmetry_equiv_pos_site_id
 _symmetry_equiv_pos_as_xyz
  1  'x, y, z'
loop_
 _atom_site_type_symbol
 _atom_site_label
 _atom_site_symmetry_multiplicity
 _atom_site_fract_x
 _atom_site_fract_y
 _atom_site_fract_z
 _atom_site_occupancy
 _atom_site_pbe_bader_charge
 _atom_site_pbe_bader_spin_density
 _atom_site_pbe_cm5_charge
 _atom_site_pbe_ddec_charge
 _atom_site_pbe_ddec_spin_density
 _atom_site_pbe_ddec_sum_bond_order
 _atom_site_pbe_magmom
Ni  Ni0  1  0.30744675  0.21216929  0.54873764  1  1.16677  1.555931  0.642797  0.741448  1.771503  2.522295  1.542
Ni  Ni1  1  0.19255338  0.78783082  0.04873794  1  1.166743  1.555928  0.642816  0.741534  1.771499  2.522206  1.542
Ni  Ni2  1  0.69254964  0.71216905  0.95126248  1  1.166807  1.55593  0.642816  0.741475  1.771496  2.522263  1.542
Ni  Ni3  1  0.80744671  0.28783056  0.45126402  1  1.166814  1.555935  0.64279  0.741429  1.771506  2.522354  1.542
H  H4  1  0.42347901  0.24678706  0.29662487  1  0.104917  4.1e-05  0.114181  0.143687  -4.5e-05  0.958425  0.0
H  H5  1  0.07652420  0.75321273  0.79662519  1  0.104954  4.1e-05  0.114178  0.143683  -4.5e-05  0.958376  0.0
H  H6  1  0.57652416  0.74678722  0.20337400  1  0.10498  4.1e-05  0.114192  0.143693  -4.5e-05  0.958395  0.0
H  H7  1  0.92347911  0.25321208  0.70337498  1  0.104922  4.1e-05  0.114185  0.143692  -4.5e-05  0.95843  0.0
H  H8  1  0.39507163  0.34435165  0.34029501  1  0.040203  -0.000517  0.107127  0.130969  -0.000493  0.960076  0.0
H  H9  1  0.10492959  0.65564882  0.84029765  1  0.040235  -0.000517  0.10713  0.130952  -0.000493  0.960087  0.0
H  H10  1  0.60492935  0.84435173  0.15970154  1  0.040238  -0.000517  0.107135  0.13097  -0.000493  0.960061  0.0
H  H11  1  0.89507192  0.15564875  0.65970422  1  0.040214  -0.000517  0.107136  0.130969  -0.000493  0.960082  0.0
H  H12  1  0.18632808  0.26447499  0.33712366  1  0.041024  0.003322  0.108036  0.0674  0.001558  0.95333  0.002
H  H13  1  0.31367414  0.73552547  0.83712642  1  0.041085  0.003321  0.108032  0.067389  0.001558  0.953382  0.002
H  H14  1  0.81367306  0.76447430  0.16287219  1  0.041112  0.003322  0.108029  0.067303  0.001558  0.953427  0.002
H  H15  1  0.68632721  0.23552372  0.66287616  1  0.041011  0.003322  0.108035  0.067403  0.001558  0.953298  0.002
H  H16  1  0.13547647  0.28223897  0.47350685  1  0.651662  -0.000336  0.295158  0.332396  -0.000358  1.008803  0.0
H  H17  1  0.36452380  0.71776043  0.97350838  1  0.651654  -0.000336  0.295151  0.332428  -0.000358  1.008767  0.0
H  H18  1  0.86452263  0.78223992  0.02649024  1  0.651661  -0.000336  0.295161  0.332418  -0.000358  1.008795  0.0
H  H19  1  0.63547659  0.21776101  0.52649358  1  0.651662  -0.000336  0.295162  0.332367  -0.000358  1.008848  0.0
H  H20  1  0.77782455  0.62675186  0.79949636  1  0.129313  0.002005  0.12038  0.096985  0.000835  1.012973  0.002
H  H21  1  0.72217576  0.37324756  0.29949617  1  0.129293  0.002005  0.120372  0.096968  0.000835  1.012991  0.002
H  H22  1  0.22217502  0.12675174  0.70050244  1  0.129366  0.002005  0.12037  0.096986  0.000835  1.012978  0.002
H  H23  1  0.27782616  0.87324794  0.20050163  1  0.129352  0.002004  0.120363  0.096979  0.000835  1.012979  0.002
H  H24  1  0.69240785  0.51505889  0.70806936  1  0.163438  0.000756  0.113047  0.139151  0.000354  1.014451  0.0
H  H25  1  0.80759043  0.48494042  0.20806931  1  0.163427  0.000756  0.113055  0.139154  0.000354  1.014462  0.0
H  H26  1  0.30759094  0.01505881  0.79192991  1  0.163435  0.000756  0.113046  0.139148  0.000354  1.014455  0.0
H  H27  1  0.19241127  0.98494159  0.29192924  1  0.163477  0.000756  0.113068  0.139157  0.000354  1.014424  0.0
H  H28  1  0.35019790  0.49670016  0.86776789  1  0.079185  0.001154  0.110848  0.11616  0.000566  0.994883  0.0
H  H29  1  0.14980033  0.50329973  0.36776663  1  0.079214  0.001154  0.110859  0.116219  0.000566  0.994856  0.0
H  H30  1  0.64980092  0.99669894  0.63223196  1  0.079191  0.001154  0.110838  0.116171  0.000566  0.994878  0.0
H  H31  1  0.85020033  0.00330027  0.13223134  1  0.079214  0.001154  0.110823  0.116187  0.000566  0.994867  0.0
H  H32  1  0.45538884  0.60283869  0.95487013  1  0.123414  0.002405  0.123671  0.09951  0.000993  1.00808  0.002
H  H33  1  0.04461242  0.39716191  0.45486933  1  0.123447  0.002405  0.123672  0.099507  0.000993  1.008097  0.002
H  H34  1  0.54461078  0.10283691  0.54512925  1  0.123436  0.002405  0.123686  0.099533  0.000993  1.007992  0.002
H  H35  1  0.95538845  0.89716159  0.04512850  1  0.123393  0.002405  0.123704  0.099535  0.000993  1.007946  0.002
H  H36  1  0.36119627  0.36318390  0.81981436  1  0.052899  0.000901  0.110621  0.115502  0.000451  0.993466  0.0
H  H37  1  0.13880095  0.63681654  0.31981569  1  0.052879  0.000901  0.110621  0.11553  0.000451  0.993424  0.0
H  H38  1  0.63880483  0.86318214  0.68018777  1  0.052953  0.000901  0.110638  0.115519  0.000451  0.993489  0.0
H  H39  1  0.86119644  0.13681591  0.18018487  1  0.052878  0.000901  0.110657  0.115596  0.000451  0.993465  0.0
H  H40  1  0.28180550  0.25528712  0.72485572  1  0.086184  0.001342  0.117199  0.082396  0.000337  1.019907  0.001
H  H41  1  0.21819568  0.74471197  0.22485719  1  0.086145  0.001343  0.117202  0.082415  0.000337  1.019864  0.001
H  H42  1  0.71819281  0.75528665  0.77514689  1  0.086307  0.001343  0.117203  0.082427  0.000337  1.019855  0.001
H  H43  1  0.78180649  0.24471213  0.27514350  1  0.086182  0.001342  0.117202  0.082408  0.000337  1.019906  0.001
H  H44  1  0.44701087  0.37408827  0.52613331  1  0.084588  0.001825  0.121957  0.096653  0.000591  0.995502  0.001
H  H45  1  0.05299126  0.62591181  0.02613340  1  0.084558  0.001826  0.121939  0.096641  0.000592  0.995461  0.001
H  H46  1  0.55298920  0.87408939  0.97386883  1  0.084537  0.001825  0.121965  0.096698  0.000592  0.995464  0.001
H  H47  1  0.94701216  0.12591148  0.47386593  1  0.084586  0.001825  0.121932  0.096613  0.000591  0.995603  0.001
H  H48  1  0.53303936  0.48701433  0.61175460  1  0.122256  0.00108  0.117822  0.126778  0.000559  0.980623  0.0
H  H49  1  0.96696089  0.51298670  0.11175460  1  0.122266  0.00108  0.117828  0.12681  0.000559  0.980639  0.0
H  H50  1  0.46695949  0.98701419  0.88824707  1  0.122215  0.00108  0.117838  0.126769  0.000559  0.980621  0.0
H  H51  1  0.03304175  0.01298634  0.38824520  1  0.122237  0.00108  0.11782  0.126796  0.000559  0.980601  0.0
C  C52  1  0.51386610  0.26433933  0.41260528  1  1.543371  -0.000791  0.227389  0.652027  -0.001427  4.058339  -0.001
C  C53  1  0.98613524  0.73566084  0.91260563  1  1.543503  -0.000791  0.227369  0.652004  -0.001427  4.058375  -0.001
C  C54  1  0.48613503  0.76433941  0.08739239  1  1.543468  -0.000793  0.227368  0.652033  -0.001429  4.058351  -0.001
C  C55  1  0.01386811  0.23566074  0.58739330  1  1.543562  -0.000793  0.227393  0.652004  -0.001428  4.058358  -0.001
C  C56  1  0.39833558  0.27825733  0.35380431  1  -0.018542  0.007218  -0.160514  -0.347577  0.004327  3.925336  0.005
C  C57  1  0.10166565  0.72174315  0.85380581  1  -0.018737  0.007219  -0.160533  -0.347538  0.004327  3.925261  0.005
C  C58  1  0.60166453  0.77825678  0.14619278  1  -0.018703  0.007218  -0.160533  -0.347619  0.004327  3.925174  0.005
C  C59  1  0.89833673  0.22174307  0.64619554  1  -0.018678  0.007218  -0.160531  -0.347588  0.004326  3.925274  0.005
C  C60  1  0.26257203  0.24845400  0.38287303  1  0.419182  0.004003  -0.012735  0.103286  0.002334  3.872831  0.001
C  C61  1  0.23742720  0.75154652  0.88287520  1  0.419115  0.004004  -0.012708  0.103303  0.002335  3.872856  0.001
C  C62  1  0.73742814  0.74845393  0.11712341  1  0.418811  0.004005  -0.012651  0.103625  0.002334  3.872376  0.001
C  C63  1  0.76257211  0.25154527  0.61712741  1  0.419195  0.004003  -0.012741  0.103293  0.002334  3.872685  0.001
C  C64  1  0.26067378  0.15385317  0.39265163  1  1.594399  0.000622  0.175658  0.524948  0.00032  4.255637  0.0
C  C65  1  0.23932546  0.84614674  0.89265817  1  1.594398  0.000621  0.175628  0.524939  0.000319  4.255695  0.0
C  C66  1  0.73932858  0.65385309  0.10734104  1  1.59443  0.000622  0.175579  0.52485  0.00032  4.255627  0.0
C  C67  1  0.76067367  0.34614671  0.60734881  1  1.594401  0.000623  0.175708  0.524989  0.00032  4.255574  0.0
C  C68  1  0.68186839  0.59722457  0.81075169  1  0.417109  -0.005353  0.046608  0.085501  -0.006157  3.937715  -0.004
C  C69  1  0.81812992  0.40277547  0.31075154  1  0.417095  -0.005353  0.046612  0.085498  -0.006158  3.937752  -0.004
C  C70  1  0.31812924  0.09722437  0.68924708  1  0.417075  -0.005355  0.046611  0.085495  -0.00616  3.937648  -0.004
C  C71  1  0.18187194  0.90277591  0.18924691  1  0.417031  -0.005355  0.0466  0.085464  -0.00616  3.937732  -0.004
C  C72  1  0.63286320  0.53659203  0.75948994  1  0.007083  0.005281  -0.075163  -0.161069  0.002907  3.903125  0.004
C  C73  1  0.86713610  0.46340795  0.25948988  1  0.007018  0.005281  -0.075166  -0.161068  0.002907  3.903171  0.004
C  C74  1  0.36713655  0.03659062  0.74051118  1  0.007076  0.005283  -0.075145  -0.161049  0.002908  3.903004  0.004
C  C75  1  0.13286764  0.96340972  0.24050865  1  0.006989  0.005283  -0.07512  -0.161006  0.002908  3.903068  0.004
C  C76  1  0.51015919  0.49911960  0.77786393  1  0.017312  -0.008014  0.013281  0.10866  -0.008896  3.979145  -0.005
C  C77  1  0.98983711  0.50088041  0.27786392  1  0.018261  -0.008013  0.013288  0.108723  -0.008895  3.978945  -0.005
C  C78  1  0.48983963  0.99911923  0.72213593  1  0.017764  -0.008014  0.013268  0.108684  -0.008897  3.979083  -0.005
C  C79  1  0.01016256  0.00088047  0.22213466  1  0.018262  -0.008015  0.013343  0.108838  -0.008898  3.978983  -0.005
C  C80  1  0.44550228  0.52350850  0.84963860  1  -0.075205  0.005295  -0.082523  -0.178845  0.002896  3.954842  0.004
C  C81  1  0.05449794  0.47648952  0.34963790  1  -0.07564  0.005295  -0.082544  -0.178984  0.002896  3.954766  0.004
C  C82  1  0.55449749  0.02350868  0.65036190  1  -0.075658  0.005297  -0.082531  -0.178914  0.002897  3.954857  0.004
C  C83  1  0.94550377  0.97648994  0.15036125  1  -0.075648  0.005296  -0.082517  -0.179004  0.002897  3.954793  0.004
C  C84  1  0.50235779  0.58388583  0.89822940  1  0.487746  -0.004379  0.048275  0.096578  -0.004935  3.936953  -0.003
C  C85  1  0.99763855  0.41611371  0.39822929  1  0.487776  -0.004378  0.048291  0.096642  -0.004935  3.936859  -0.003
C  C86  1  0.49763986  0.08388477  0.60176996  1  0.487775  -0.004379  0.048268  0.096617  -0.004936  3.936788  -0.003
C  C87  1  0.00236029  0.91611417  0.10176918  1  0.487763  -0.004379  0.048269  0.096674  -0.004936  3.93665  -0.003
C  C88  1  0.45478718  0.43535525  0.72409315  1  -0.029529  -0.007008  0.015398  0.106619  -0.00775  3.98164  -0.004
C  C89  1  0.04521001  0.56464630  0.22409377  1  -0.029939  -0.007008  0.01538  0.106634  -0.007749  3.981439  -0.004
C  C90  1  0.54521277  0.93535429  0.77590846  1  -0.0295  -0.007006  0.015375  0.106587  -0.007747  3.981644  -0.004
C  C91  1  0.95478953  0.06464449  0.27590549  1  -0.029941  -0.007007  0.015342  0.106532  -0.007748  3.981529  -0.004
C  C92  1  0.38117142  0.36898184  0.75486924  1  -0.025804  0.00353  -0.08198  -0.17414  0.001921  3.954472  0.003
C  C93  1  0.11882678  0.63101975  0.25486995  1  -0.025811  0.00353  -0.081972  -0.174165  0.001921  3.954399  0.003
C  C94  1  0.61882966  0.86898079  0.74513290  1  -0.025778  0.00353  -0.08199  -0.174137  0.001921  3.954505  0.003
C  C95  1  0.88117263  0.13101857  0.24512939  1  -0.025805  0.003529  -0.082038  -0.174282  0.00192  3.954501  0.003
C  C96  1  0.33805522  0.30776281  0.70238828  1  0.497479  -0.005222  0.043003  0.090177  -0.006093  3.971419  -0.004
C  C97  1  0.16194397  0.69223810  0.20238968  1  0.497473  -0.005221  0.043035  0.090208  -0.006093  3.971365  -0.004
C  C98  1  0.66194299  0.80776240  0.79761500  1  0.497183  -0.00522  0.042953  0.090105  -0.006092  3.971552  -0.004
C  C99  1  0.83805532  0.19223702  0.29761155  1  0.497494  -0.00522  0.042991  0.09017  -0.006092  3.971394  -0.004
C  C100  1  0.42933392  0.37402390  0.59140530  1  0.515035  -0.004335  0.04977  0.103703  -0.004823  3.926055  -0.003
C  C101  1  0.07066422  0.62597749  0.09140601  1  0.515056  -0.004334  0.049776  0.103755  -0.004822  3.926062  -0.003
C  C102  1  0.57066415  0.87402431  0.90859745  1  0.514998  -0.004334  0.049761  0.103664  -0.004822  3.925991  -0.003
C  C103  1  0.92933619  0.12597647  0.40859393  1  0.515083  -0.004334  0.049825  0.103796  -0.004822  3.926127  -0.003
C  C104  1  0.47672566  0.43739010  0.63987558  1  -0.013927  0.004051  -0.070764  -0.146338  0.002224  3.920909  0.003
C  C105  1  0.02327050  0.56261135  0.13987559  1  -0.013918  0.004052  -0.070777  -0.146418  0.002224  3.920975  0.003
C  C106  1  0.52327228  0.93739110  0.86012481  1  -0.013929  0.004051  -0.070754  -0.146302  0.002224  3.920857  0.003
C  C107  1  0.97672904  0.06260962  0.36012366  1  -0.013932  0.00405  -0.070783  -0.146391  0.002223  3.920845  0.003
N  N108  1  0.61729745  0.62211530  0.87850168  1  -1.212091  0.071711  -0.324444  -0.213959  0.041611  3.577149  0.064
N  N109  1  0.88269988  0.37788544  0.37850212  1  -1.212153  0.071711  -0.324427  -0.213939  0.041611  3.577071  0.065
N  N110  1  0.38270113  0.12211435  0.62149772  1  -1.212101  0.071714  -0.324449  -0.214002  0.041612  3.57714  0.065
N  N111  1  0.11730003  0.87788462  0.12149691  1  -1.212161  0.071714  -0.324476  -0.214044  0.041613  3.577111  0.065
N  N112  1  0.36299567  0.30889216  0.62177418  1  -1.199905  0.059728  -0.329194  -0.236268  0.034758  3.593671  0.054
N  N113  1  0.13700248  0.69110865  0.12177497  1  -1.19989  0.059736  -0.329237  -0.236377  0.034762  3.593717  0.054
N  N114  1  0.63700153  0.80889249  0.87822971  1  -1.199791  0.059736  -0.329149  -0.236236  0.034763  3.593875  0.054
N  N115  1  0.86299680  0.19110764  0.37822566  1  -1.199899  0.059726  -0.329205  -0.236272  0.034757  3.593656  0.054
O  O116  1  0.49495962  0.22815642  0.48114776  1  -1.170367  0.05037  -0.295621  -0.543485  0.028417  2.341039  0.046
O  O117  1  0.00503765  0.77184605  0.98114627  1  -1.17037  0.050367  -0.295614  -0.543496  0.028415  2.341092  0.046
O  O118  1  0.50503460  0.72815641  0.01885230  1  -1.170397  0.050367  -0.295589  -0.543485  0.028416  2.341188  0.046
O  O119  1  0.99496362  0.27184328  0.51885210  1  -1.17039  0.050367  -0.295594  -0.543478  0.028415  2.341185  0.046
O  O120  1  0.62658254  0.29066425  0.38898314  1  -1.150074  0.081979  -0.301718  -0.540318  0.045925  2.357536  0.076
O  O121  1  0.87341880  0.70933528  0.88898101  1  -1.150044  0.081986  -0.301675  -0.5403  0.045929  2.35748  0.076
O  O122  1  0.37341655  0.79066629  0.11101944  1  -1.149982  0.081994  -0.301718  -0.540365  0.045933  2.357411  0.076
O  O123  1  0.12658460  0.20933451  0.61101789  1  -1.150111  0.081981  -0.301721  -0.540292  0.045927  2.357476  0.076
O  O124  1  0.23280218  0.29060064  0.45800649  1  -1.139911  0.067262  -0.394302  -0.497845  0.038336  2.443823  0.06
O  O125  1  0.26719808  0.70939874  0.95800800  1  -1.139901  0.067259  -0.394307  -0.4979  0.038335  2.443721  0.06
O  O126  1  0.76719790  0.79060107  0.04199061  1  -1.139623  0.067262  -0.394317  -0.497947  0.038337  2.44368  0.06
O  O127  1  0.73280032  0.20939865  0.54199334  1  -1.139919  0.067262  -0.394295  -0.497811  0.038336  2.443823  0.06
O  O128  1  0.26762144  0.11177771  0.32948021  1  -1.179777  0.017849  -0.34858  -0.561193  0.009567  2.107127  0.014
O  O129  1  0.23237678  0.88822396  0.82947828  1  -1.179684  0.017855  -0.348602  -0.561268  0.00957  2.106819  0.014
O  O130  1  0.73237801  0.61177649  0.17052276  1  -1.179688  0.017855  -0.348594  -0.561275  0.00957  2.106832  0.014
O  O131  1  0.76762226  0.38822094  0.67052023  1  -1.179774  0.017848  -0.348573  -0.561172  0.009566  2.107153  0.014
O  O132  1  0.25089016  0.12678287  0.46618175  1  -1.129482  0.086292  -0.3447  -0.559504  0.047689  2.292628  0.078
O  O133  1  0.24911010  0.87321713  0.96618162  1  -1.129548  0.086272  -0.344674  -0.559455  0.047679  2.292906  0.078
O  O134  1  0.74911025  0.62678208  0.03381881  1  -1.129597  0.086265  -0.344679  -0.559463  0.047675  2.29296  0.078
O  O135  1  0.75088997  0.37321702  0.53381869  1  -1.129453  0.086292  -0.344742  -0.559554  0.047689  2.292612  0.078
