# generated using pymatgen
data_AlH9C13SNO5
_symmetry_space_group_name_H-M   'P 1'
_cell_length_a   6.66449073
_cell_length_b   12.95230381
_cell_length_c   17.68229023
_cell_angle_alpha   76.95730321
_cell_angle_beta   80.54734467
_cell_angle_gamma   70.32456658
_symmetry_Int_Tables_number   1
_chemical_formula_structural   AlH9C13SNO5
_chemical_formula_sum   'Al2 H18 C26 S2 N2 O10'
_cell_volume   1393.65703858
_cell_formula_units_Z   2
loop_
 _symmetry_equiv_pos_site_id
 _symmetry_equiv_pos_as_xyz
  1  'x, y, z'
loop_
 _atom_site_type_symbol
 _atom_site_label
 _atom_site_symmetry_multiplicity
 _atom_site_fract_x
 _atom_site_fract_y
 _atom_site_fract_z
 _atom_site_occupancy
 _atom_site_pbe_bader_charge
 _atom_site_pbe_bader_spin_density
 _atom_site_pbe_cm5_charge
 _atom_site_pbe_ddec_charge
 _atom_site_pbe_ddec_spin_density
 _atom_site_pbe_ddec_sum_bond_order
 _atom_site_pbe_magmom
Al  Al0  1  0.50031751  0.50166028  0.49951865  1  2.502847  0  0.387592  1.635142  0  2.606744  0
Al  Al1  1  0.00019775  0.50179748  0.49976507  1  2.501067  0  0.394702  1.626931  0  2.572443  0
H  H2  1  0.24616144  0.43684960  0.59693320  1  0.593108  0  0.348481  0.420137  0  0.868939  0
H  H3  1  0.75507835  0.56663505  0.40241564  1  0.628074  0  0.348883  0.419742  0  0.869572  0
H  H4  1  0.62686447  0.56014491  0.26258703  1  0.076221  0  0.107829  0.109671  0  0.997906  0
H  H5  1  0.68749677  0.56649207  0.11874171  1  0.088662  0  0.105909  0.108672  0  1.00113  0
H  H6  1  0.09994703  0.43438548  0.27450255  1  0.089173  0  0.108866  0.11637  0  0.998572  0
H  H7  1  0.89968607  0.56483501  0.72727889  1  0.088868  0  0.108356  0.115967  0  0.998319  0
H  H8  1  0.37533011  0.43880636  0.73508794  1  0.094836  0  0.10801  0.10961  0  0.999259  0
H  H9  1  0.31240795  0.42882554  0.87928808  1  0.062864  0  0.106281  0.109419  0  1.00039  0
H  H10  1  0.01202471  0.39100502  0.16145871  1  0.057952  0  0.09394  0.132766  0  1.002802  0
H  H11  1  0.23970254  0.34343734  0.09493466  1  0.070442  0  0.097353  0.136936  0  0.980655  0
H  H12  1  0.06112534  0.47906627  0.07194712  1  0.034495  0  0.091577  0.124816  0  1.010724  0
H  H13  1  0.93621769  0.51468604  0.93029131  1  0.048545  0  0.091823  0.12493  0  1.010048  0
H  H14  1  0.75755080  0.65059069  0.90860032  1  0.04823  0  0.097367  0.137445  0  0.981658  0
H  H15  1  0.98595357  0.60477090  0.84194232  1  0.047833  0  0.093921  0.132623  0  1.004095  0
H  H16  1  0.52671513  0.88170534  0.45581783  1  0.452431  0  0.280026  0.266144  0  1.03962  0
H  H17  1  0.49243098  0.75357288  0.45861037  1  0.499745  0  0.308972  0.323573  0  0.958103  0
H  H18  1  0.47393401  0.12159321  0.54380465  1  0.448355  0  0.279957  0.266841  0  1.03774  0
H  H19  1  0.50862237  0.24971002  0.54077437  1  0.494862  0  0.309423  0.324351  0  0.958269  0
C  C20  1  0.88086385  0.30233278  0.50750525  1  1.522322  0  0.240358  0.644103  0  4.173654  0
C  C21  1  0.67980856  0.50538403  0.63735520  1  1.576097  0  0.270591  0.649891  0  4.081202  0
C  C22  1  0.11984891  0.70090106  0.49178434  1  1.562871  0  0.240293  0.642428  0  4.173326  0
C  C23  1  0.32117455  0.49673739  0.36208436  1  1.543161  0  0.270775  0.65053  0  4.077625  0
C  C24  1  0.35867858  0.49744298  0.27670452  1  0.008155  0  -0.014222  -0.03621  0  3.999198  0
C  C25  1  0.52669631  0.53328722  0.23325089  1  -0.04063  0  -0.084581  -0.101377  0  4.011416  0
C  C26  1  0.56130078  0.53595559  0.15348439  1  -0.058858  0  -0.083567  -0.1232  0  3.981337  0
C  C27  1  0.43540262  0.49793720  0.11603867  1  0.148957  0  0.000343  0.07676  0  4.077013  0
C  C28  1  0.26719679  0.45938573  0.15992304  1  -0.033541  0  0.002018  0.135628  0  3.921899  0
C  C29  1  0.22927523  0.46237610  0.23952638  1  -0.011796  0  -0.083011  -0.159576  0  3.940404  0
C  C30  1  0.47911570  0.49744804  0.03510567  1  0.063082  0  -0.038886  -0.095762  0  4.122331  0
C  C31  1  0.51795970  0.49662572  0.96517345  1  -0.470521  0  -0.039603  -0.09755  0  4.123738  0
C  C32  1  0.56297163  0.49744962  0.88411835  1  0.071951  0  5.6e-05  0.07557  0  4.079263  0
C  C33  1  0.73136686  0.53690911  0.84135064  1  0.038309  0  0.002725  0.137846  0  3.921645  0
C  C34  1  0.77036560  0.53602047  0.76146312  1  -0.051455  0  -0.082847  -0.160218  0  3.940082  0
C  C35  1  0.64191771  0.50213971  0.72301443  1  -0.03101  0  -0.013192  -0.034619  0  3.999707  0
C  C36  1  0.47438311  0.46495125  0.76543913  1  -0.041693  0  -0.085722  -0.102121  0  4.015143  0
C  C37  1  0.43851926  0.46025114  0.84540078  1  0.00641  0  -0.083197  -0.123142  0  3.982549  0
C  C38  1  0.21707995  0.87777408  0.47814449  1  0.544083  0  0.111246  0.289727  0  4.103547  0
C  C39  1  0.78374071  0.12534669  0.52137550  1  0.516973  0  0.110381  0.289402  0  4.102218  0
C  C40  1  0.06976463  0.81688834  0.49566355  1  -0.15131  0  -0.049268  -0.27148  0  3.945152  0
C  C41  1  0.93109337  0.18625552  0.50373845  1  -0.107095  0  -0.049403  -0.271792  0  3.944752  0
C  C42  1  0.89160626  0.01245465  0.51204048  1  -0.09936  0  -0.028518  -0.104635  0  4.07558  0
C  C43  1  0.10920310  0.99059119  0.48765528  1  -0.185763  0  -0.029027  -0.10583  0  4.075313  0
C  C44  1  0.13726942  0.41591709  0.12056951  1  -0.103273  0  -0.235765  -0.411967  0  3.97907  0
C  C45  1  0.86047257  0.57901570  0.88211986  1  -0.071817  0  -0.236292  -0.413012  0  3.982168  0
S  S46  1  0.80993137  0.89622691  0.52494068  1  0.186537  0  0.060152  0.096118  0  2.871619  0
S  S47  1  0.19093759  0.10682233  0.47462182  1  0.199098  0  0.059964  0.096427  0  2.871529  0
N  N48  1  0.42745103  0.83788870  0.45374874  1  -1.259118  0  -0.578022  -0.569403  0  3.3569  0
N  N49  1  0.57337931  0.16537269  0.54574978  1  -1.247986  0  -0.578281  -0.571051  0  3.355096  0
O  O50  1  0.68075323  0.35350411  0.52389156  1  -1.277886  0  -0.249882  -0.622183  0  2.392144  0
O  O51  1  0.87104193  0.49052861  0.60546668  1  -1.258869  0  -0.234014  -0.595928  0  2.340624  0
O  O52  1  0.97079409  0.65567807  0.50331830  1  -1.263551  0  -0.25458  -0.597963  0  2.30166  0
O  O53  1  0.48478686  0.48079672  0.39705758  1  -1.263929  0  -0.236504  -0.595134  0  2.333316  0
O  O54  1  0.31977357  0.64972327  0.47503582  1  -1.278861  0  -0.250092  -0.620801  0  2.388395  0
O  O55  1  0.12978606  0.51299055  0.39407521  1  -1.258464  0  -0.234362  -0.596437  0  2.339909  0
O  O56  1  0.02975784  0.34765126  0.49627784  1  -1.252282  0  -0.254851  -0.599145  0  2.299696  0
O  O57  1  0.51651218  0.52190540  0.60205187  1  -1.261237  0  -0.236686  -0.595648  0  2.336731  0
O  O58  1  0.26570455  0.44952209  0.54036376  1  -1.400785  0  -0.446786  -0.975656  0  2.177776  0
O  O59  1  0.73490838  0.55393898  0.45897788  1  -1.435527  0  -0.447008  -0.974676  0  2.178072  0
