# generated using pymatgen
data_AlH4C10ClO5F
_symmetry_space_group_name_H-M   'P 1'
_cell_length_a   6.64165120
_cell_length_b   8.83726306
_cell_length_c   17.65133300
_cell_angle_alpha   81.00196857
_cell_angle_beta   80.99367422
_cell_angle_gamma   75.51825016
_symmetry_Int_Tables_number   1
_chemical_formula_structural   AlH4C10ClO5F
_chemical_formula_sum   'Al2 H8 C20 Cl2 O10 F2'
_cell_volume   983.26746356
_cell_formula_units_Z   2
loop_
 _symmetry_equiv_pos_site_id
 _symmetry_equiv_pos_as_xyz
  1  'x, y, z'
loop_
 _atom_site_type_symbol
 _atom_site_label
 _atom_site_symmetry_multiplicity
 _atom_site_fract_x
 _atom_site_fract_y
 _atom_site_fract_z
 _atom_site_occupancy
 _atom_site_pbe_bader_charge
 _atom_site_pbe_bader_spin_density
 _atom_site_pbe_cm5_charge
 _atom_site_pbe_ddec_charge
 _atom_site_pbe_ddec_spin_density
 _atom_site_pbe_ddec_sum_bond_order
 _atom_site_pbe_magmom
Al  Al0  1  0.49981034  0.50021888  0.50000020  1  2.503366  0  0.403004  1.644258  0  2.576825  0
Al  Al1  1  0.99982184  0.50012397  0.49998618  1  2.505059  0  0.400041  1.640325  0  2.577905  0
H  H2  1  0.28568921  0.31638314  0.55652678  1  0.625452  0  0.35648  0.43755  0  0.845297  0
H  H3  1  0.71419139  0.68398909  0.44348511  1  0.622386  0  0.356262  0.437008  0  0.845469  0
H  H4  1  0.62444571  0.58015352  0.26913296  1  0.112048  0  0.112714  0.123243  0  0.986609  0
H  H5  1  0.69767820  0.58525700  0.12525454  1  0.081811  0  0.104675  0.111997  0  1.002222  0
H  H6  1  0.09035073  0.38666756  0.26995390  1  0.125414  0  0.114772  0.134804  0  0.986787  0
H  H7  1  0.90951541  0.61348138  0.72999920  1  0.119093  0  0.114888  0.134968  0  0.987213  0
H  H8  1  0.37577619  0.41956518  0.73098561  1  0.11306  0  0.112851  0.123246  0  0.986749  0
H  H9  1  0.30303025  0.41414670  0.87491864  1  0.075473  0  0.104866  0.112316  0  1.001936  0
C  C10  1  0.83605125  0.21986155  0.50130573  1  1.68039  0  0.266389  0.605673  0  4.157806  0
C  C11  1  0.69754502  0.50743933  0.63756618  1  1.582622  0  0.266821  0.637947  0  4.09946  0
C  C12  1  0.16362043  0.78051171  0.49859842  1  1.678984  0  0.26687  0.605574  0  4.157503  0
C  C13  1  0.30203710  0.49280587  0.36242697  1  1.581434  0  0.266981  0.638593  0  4.101277  0
C  C14  1  0.35147791  0.48569610  0.27758292  1  -0.036986  0  -0.011126  -0.025712  0  3.973277  0
C  C15  1  0.52501733  0.53916506  0.23711878  1  -0.004678  0  -0.079891  -0.093615  0  3.979193  0
C  C16  1  0.56584966  0.54151899  0.15760901  1  0.036228  0  -0.07947  -0.108178  0  3.95306  0
C  C17  1  0.43807737  0.48687829  0.11618140  1  0.090629  0  0.001617  0.085568  0  4.090739  0
C  C18  1  0.26846823  0.42747674  0.15845644  1  0.128525  0  0.019568  0.105773  0  4.002055  0
C  C19  1  0.22372930  0.42908094  0.23802226  1  -0.050258  0  -0.086073  -0.160456  0  3.958287  0
C  C20  1  0.47988018  0.49405584  0.03516020  1  0.12984  0  -0.041103  -0.085329  0  4.12747  0
C  C21  1  0.52079543  0.50555048  0.96493814  1  -0.506739  0  -0.041386  -0.086362  0  4.126934  0
C  C22  1  0.56253878  0.51267086  0.88389280  1  0.185323  0  0.001785  0.085466  0  4.088807  0
C  C23  1  0.73202616  0.57220690  0.84153323  1  0.037202  0  0.019466  0.106087  0  4.001937  0
C  C24  1  0.77646894  0.57081793  0.76196933  1  -0.045427  0  -0.085897  -0.160578  0  3.959607  0
C  C25  1  0.64859819  0.51416132  0.72248765  1  -0.033121  0  -0.010962  -0.024585  0  3.971309  0
C  C26  1  0.47523038  0.46053287  0.76298619  1  -0.034551  0  -0.080488  -0.094296  0  3.978665  0
C  C27  1  0.43468831  0.45800405  0.84251092  1  0.066383  0  -0.079291  -0.108051  0  3.952167  0
C  C28  1  0.90181993  0.04645866  0.49794203  1  0.598287  0  0.103706  0.052877  0  3.964821  0
C  C29  1  0.09791911  0.95392653  0.50185263  1  0.514563  0  0.10331  0.052558  0  3.966328  0
Cl  Cl30  1  0.11439782  0.35351454  0.11009914  1  -0.201459  0  -0.002013  -0.077891  0  1.490865  0
Cl  Cl31  1  0.88613920  0.64619574  0.88987207  1  -0.201618  0  -0.00234  -0.078275  0  1.49067  0
O  O32  1  0.64855117  0.28442772  0.48973628  1  -1.235493  0  -0.22401  -0.554733  0  2.328299  0
O  O33  1  0.87401830  0.53082204  0.60464898  1  -1.257855  0  -0.237678  -0.585391  0  2.324731  0
O  O34  1  0.02791994  0.71367043  0.48429890  1  -1.250906  0  -0.226407  -0.57609  0  2.386042  0
O  O35  1  0.44022056  0.52602405  0.39566879  1  -1.267894  0  -0.239948  -0.605333  0  2.363212  0
O  O36  1  0.35114089  0.71597474  0.51021201  1  -1.234415  0  -0.224381  -0.555043  0  2.327176  0
O  O37  1  0.12546968  0.46955010  0.39527526  1  -1.256298  0  -0.237922  -0.58558  0  2.324215  0
O  O38  1  0.97184155  0.28659992  0.51567935  1  -1.252002  0  -0.226489  -0.576919  0  2.385871  0
O  O39  1  0.55910069  0.47430568  0.60438621  1  -1.267025  0  -0.239875  -0.605455  0  2.361823  0
O  O40  1  0.25882720  0.42723247  0.53650811  1  -1.422865  0  -0.448497  -0.991036  0  2.185937  0
O  O41  1  0.74084137  0.57309964  0.46344050  1  -1.419729  0  -0.448583  -0.990367  0  2.185205  0
F  F42  1  0.74441091  0.98225544  0.48937248  1  -0.606815  0  -0.071775  -0.07352  0  1.440175  0
F  F43  1  0.25531911  0.01811460  0.51038899  1  -0.60744  0  -0.071462  -0.073038  0  1.441118  0
