# generated using pymatgen
data_ZnH12(C4N)4
_symmetry_space_group_name_H-M   'P 1'
_cell_length_a   14.37542887
_cell_length_b   14.77515096
_cell_length_c   17.46056855
_cell_angle_alpha   108.74269094
_cell_angle_beta   107.71280525
_cell_angle_gamma   107.19044845
_symmetry_Int_Tables_number   1
_chemical_formula_structural   ZnH12(C4N)4
_chemical_formula_sum   'Zn4 H48 C64 N16'
_cell_volume   3010.72860112
_cell_formula_units_Z   4
loop_
 _symmetry_equiv_pos_site_id
 _symmetry_equiv_pos_as_xyz
  1  'x, y, z'
loop_
 _atom_site_type_symbol
 _atom_site_label
 _atom_site_symmetry_multiplicity
 _atom_site_fract_x
 _atom_site_fract_y
 _atom_site_fract_z
 _atom_site_occupancy
 _atom_site_pbe_bader_charge
 _atom_site_pbe_bader_spin_density
 _atom_site_pbe_cm5_charge
 _atom_site_pbe_ddec_charge
 _atom_site_pbe_ddec_spin_density
 _atom_site_pbe_ddec_sum_bond_order
 _atom_site_pbe_magmom
Zn  Zn0  1  0.40563035  0.00721829  0.87246483  1  1.15945  0  0.782685  0.701881  0  2.28389  0
Zn  Zn1  1  0.63708550  0.99891212  0.11736533  1  1.182645  0  0.74028  0.580308  0  2.590613  0
Zn  Zn2  1  0.36281217  0.90452744  0.03593489  1  1.198501  0  0.758201  0.704872  0  2.230768  0
Zn  Zn3  1  0.67163532  0.12014629  0.99375525  1  1.19374  0  0.743731  0.625263  0  2.412328  0
H  H4  1  0.20996327  0.13741842  0.00574516  1  0.066616  0  0.108643  0.09843  0  0.991917  0
H  H5  1  0.67180452  0.70849554  0.11853629  1  0.056205  0  0.091119  0.097152  0  0.991094  0
H  H6  1  0.78537634  0.57462905  0.05414347  1  0.017636  0  0.088307  0.091046  0  0.996415  0
H  H7  1  0.70193953  0.54795935  0.10949623  1  0.037521  0  0.089915  0.09408  0  0.99904  0
H  H8  1  0.98697715  0.75578261  0.57580715  1  0.021566  0  0.09598  0.098577  0  1.028497  0
H  H9  1  0.02960901  0.55711947  0.70573675  1  0.037546  0  0.096524  0.094601  0  1.015002  0
H  H10  1  0.85788144  0.67192750  0.41330237  1  0.041977  0  0.095551  0.093637  0  1.007128  0
H  H11  1  0.88909469  0.39813997  0.56627949  1  0.046207  0  0.100007  0.099574  0  0.996579  0
H  H12  1  0.73524805  0.51055644  0.26920336  1  0.047516  0  0.096405  0.095626  0  1.012481  0
H  H13  1  0.77462399  0.31534788  0.40302945  1  0.06162  0  0.098974  0.100156  0  1.013742  0
H  H14  1  0.66692154  0.91760977  0.42483857  1  0.02461  0  0.09505  0.093793  0  1.037273  0
H  H15  1  0.64853911  0.81752251  0.97742513  1  0.124267  0  0.112531  0.097812  0  1.057511  0
H  H16  1  0.35061801  0.89974804  0.20863455  1  0.094706  0  0.115484  0.105028  0  1.01373  0
H  H17  1  0.32044701  0.79927923  0.28641629  1  0.057095  0  0.095704  0.095464  0  1.01056  0
H  H18  1  0.30039187  0.76361466  0.41047712  1  0.065524  0  0.097688  0.09718  0  1.000382  0
H  H19  1  0.72980237  0.91075832  0.70753997  1  0.065809  0  0.0951  0.098407  0  1.040828  0
H  H20  1  0.97734352  0.89976417  0.06326260  1  0.055691  0  0.097029  0.076304  0  0.992213  0
H  H21  1  0.76671330  0.78484606  0.95875886  1  0.02789  0  0.087407  0.087277  0  1.061931  0
H  H22  1  0.92472602  0.77255452  0.73424325  1  0.061568  0  0.095187  0.112572  0  1.008054  0
H  H23  1  0.84526433  0.82931316  0.68549262  1  0.044733  0  0.092223  0.102509  0  1.015149  0
H  H24  1  0.08017916  0.95133623  0.83305640  1  0.077153  0  0.089735  0.10319  0  1.029763  0
H  H25  1  0.71606756  0.34449693  0.95450590  1  0.103194  0  0.122048  0.11116  0  0.984507  0
H  H26  1  0.11685436  0.70742941  0.84305012  1  0.042484  0  0.112622  0.097759  0  1.002256  0
H  H27  1  0.99708543  0.01184988  0.79447424  1  0.034246  0  0.085656  0.087062  0  1.003257  0
H  H28  1  0.36799526  0.19953958  0.85988765  1  0.108657  0  0.122759  0.113524  0  0.988958  0
H  H29  1  0.71567734  0.34953200  0.13357436  1  0.071853  0  0.113293  0.097833  0  1.018368  0
H  H30  1  0.37146189  0.82035070  0.70298625  1  0.08933  0  0.119469  0.110406  0  1.001508  0
H  H31  1  0.17335885  0.83874364  0.61535574  1  0.069618  0  0.098777  0.139911  0  0.992207  0
H  H32  1  0.12894177  0.93160488  0.66541684  1  0.047319  0  0.097162  0.138309  0  0.982196  0
H  H33  1  0.26946690  0.96534598  0.70634571  1  0.01537  0  0.090183  0.118397  0  1.02105  0
H  H34  1  0.38135021  0.32630548  0.77921481  1  0.008496  0  0.092393  0.094706  0  1.018416  0
H  H35  1  0.25685921  0.47366653  0.78828390  1  0.014889  0  0.086502  0.116049  0  1.003878  0
H  H36  1  0.33877154  0.54576331  0.75065391  1  0.032958  0  0.092922  0.13021  0  0.99888  0
H  H37  1  0.89016994  0.09662494  0.98303842  1  0.070091  0  0.115287  0.101242  0  1.009365  0
H  H38  1  0.29087706  0.40530490  0.70535699  1  0.026241  0  0.091214  0.126436  0  0.995283  0
H  H39  1  0.84470951  0.94869964  0.64111009  1  0.033753  0  0.088704  0.121856  0  1.029372  0
H  H40  1  0.78768593  0.86769464  0.52291563  1  0.032448  0  0.090502  0.124349  0  0.995959  0
H  H41  1  0.80273955  0.99993229  0.56474242  1  0.013168  0  0.090588  0.123616  0  0.997802  0
H  H42  1  0.38337447  0.79396504  0.56687240  1  0.019416  0  0.096118  0.099106  0  1.014975  0
H  H43  1  0.67714508  0.92422830  0.29169766  1  0.086747  0  0.114502  0.10274  0  1.003272  0
H  H44  1  0.10060760  0.83894748  0.10809985  1  0.041417  0  0.090601  0.124836  0  0.994116  0
H  H45  1  0.03665902  0.77307914  0.98857983  1  0.072573  0  0.097137  0.142163  0  0.989114  0
H  H46  1  0.16761349  0.78544620  0.04935549  1  0.00455  0  0.087833  0.116129  0  1.014832  0
H  H47  1  0.82303129  0.92341653  0.13247507  1  0.058037  0  0.115942  0.103248  0  1.006893  0
H  H48  1  0.72254991  0.98287779  0.84119064  1  0.083059  0  0.113681  0.097102  0  1.033315  0
H  H49  1  0.31040754  0.65558108  0.91363536  1  0.08274  0  0.116802  0.103773  0  1.004844  0
H  H50  1  0.75557949  0.73437150  0.06327071  1  0.020902  0  0.085067  0.085228  0  1.030835  0
H  H51  1  0.62154331  0.16970453  0.27252626  1  0.099813  0  0.121962  0.114996  0  0.991316  0
C  C52  1  0.20970948  0.07130542  0.02059901  1  0.449153  0  -0.002356  -0.042596  0  4.064226  0
C  C53  1  0.18360328  0.85566324  0.74506440  1  0.390106  0  0.077888  0.18494  0  3.996496  0
C  C54  1  0.63583242  0.95177689  0.82061895  1  0.455258  0  0.015067  -0.029705  0  3.938486  0
C  C55  1  0.63937156  0.19866772  0.22644132  1  0.427127  0  0.013569  -0.034682  0  3.942606  0
C  C56  1  0.39314957  0.71131065  0.93581553  1  0.425496  0  0.010718  -0.047238  0  3.957428  0
C  C57  1  0.54942203  0.88228418  0.73419331  1  -0.006961  0  -0.031058  -0.029579  0  4.048229  0
C  C58  1  0.48187687  0.69197925  0.93069918  1  0.039325  0  -0.031951  -0.018338  0  4.063616  0
C  C59  1  0.11068746  0.75902976  0.73357004  1  0.021756  0  -0.040052  -0.11146  0  4.055913  0
C  C60  1  0.88296707  0.98547559  0.04594727  1  0.02498  0  -0.027178  0.000393  0  3.988108  0
C  C61  1  0.60779451  0.50968740  0.96695179  1  2.5e-05  0  -0.022599  0.007974  0  3.930252  0
C  C62  1  0.53204456  0.40767672  0.90041852  1  0.020631  0  -0.015635  0.036429  0  4.097684  0
C  C63  1  0.68840778  0.30329103  0.23930268  1  -0.02949  0  -0.031648  -0.030833  0  4.051851  0
C  C64  1  0.44128549  0.40356639  0.83559842  1  -0.03665  0  -0.100998  -0.211074  0  3.97298  0
C  C65  1  0.42280181  0.49277007  0.83949368  1  -0.00355  0  -0.010954  0.123749  0  3.965017  0
C  C66  1  0.49774023  0.59503346  0.91159421  1  0.016779  0  -0.009233  -0.020048  0  4.002688  0
C  C67  1  0.43133521  0.90831475  0.21720676  1  0.396339  0  0.001919  -0.060527  0  3.997465  0
C  C68  1  0.59070516  0.59891632  0.97185606  1  -0.080406  0  -0.016986  0.024164  0  3.919677  0
C  C69  1  0.68975043  0.67226040  0.06243659  1  -0.037962  0  -0.155437  -0.193027  0  3.889593  0
C  C70  1  0.70885048  0.57075195  0.05662746  1  -0.032256  0  -0.156405  -0.1916  0  3.899559  0
C  C71  1  0.02102165  0.66897850  0.65074491  1  -0.019332  0  -0.012713  0.092512  0  4.066029  0
C  C72  1  0.74703625  0.40017169  0.32529642  1  -0.04346  0  -0.010545  0.08832  0  4.050363  0
C  C73  1  0.83938017  0.59362606  0.41111392  1  -0.105358  0  -0.0972  -0.137737  0  4.022428  0
C  C74  1  0.50839082  0.89492979  0.27929896  1  -0.007334  0  -0.040145  -0.041569  0  4.093491  0
C  C75  1  0.77111713  0.50330002  0.33045517  1  0.009951  0  -0.097567  -0.138171  0  4.010503  0
C  C76  1  0.79017615  0.39314359  0.40491918  1  0.053086  0  -0.092144  -0.184693  0  3.943675  0
C  C77  1  0.86094698  0.48399466  0.48829128  1  -0.0656  0  -0.010724  0.080164  0  4.02422  0
C  C78  1  0.88911879  0.58737015  0.49200010  1  -0.00801  0  -0.012182  0.077388  0  4.018924  0
C  C79  1  0.63158458  0.29337489  0.93244399  1  0.365581  0  0.016246  -0.040096  0  3.963898  0
C  C80  1  0.96780090  0.67784045  0.57415555  1  0.007787  0  -0.097014  -0.19846  0  3.944459  0
C  C81  1  0.98895251  0.56550167  0.64633059  1  -0.099498  0  -0.097142  -0.138508  0  4.011393  0
C  C82  1  0.91114268  0.47653523  0.56836839  1  0.032524  0  -0.093679  -0.130089  0  4.020263  0
C  C83  1  0.49677224  0.86397600  0.34851388  1  0.066713  0  -0.0144  0.085775  0  4.074134  0
C  C84  1  0.55534282  0.85602371  0.64806283  1  -0.014188  0  -0.011791  0.094506  0  4.07406  0
C  C85  1  0.53957545  0.31217813  0.90277906  1  0.08109  0  -0.030074  -0.020362  0  4.088326  0
C  C86  1  0.67132272  0.89068807  0.57250541  1  -0.046728  0  -0.011793  0.12417  0  3.973686  0
C  C87  1  0.65825754  0.88653435  0.64657962  1  -0.004785  0  -0.096773  -0.200398  0  3.947519  0
C  C88  1  0.46382186  0.81867180  0.56869051  1  -0.02247  0  -0.097941  -0.200456  0  3.967875  0
C  C89  1  0.47283161  0.82282051  0.49142576  1  0.005651  0  -0.011681  0.082813  0  4.04449  0
C  C90  1  0.57807804  0.86346595  0.49377355  1  0.000412  0  -0.012307  0.020653  0  3.977691  0
C  C91  1  0.59819100  0.92203133  0.26008109  1  0.387687  0  0.003722  -0.058557  0  3.986259  0
C  C92  1  0.58665915  0.88230362  0.42129606  1  -0.066492  0  -0.09972  -0.18943  0  3.967325  0
C  C93  1  0.39227061  0.81770081  0.34462634  1  -0.096273  0  -0.099828  -0.139047  0  4.016965  0
C  C94  1  0.38086267  0.79725797  0.41357638  1  -0.075429  0  -0.095257  -0.133173  0  4.023778  0
C  C95  1  0.95761526  0.94873819  0.88581583  1  -0.138216  0  -0.02424  -0.025104  0  3.808982  0
C  C96  1  0.45692814  0.86844116  0.74958068  1  0.394589  0  0.008195  -0.049681  0  3.948759  0
C  C97  1  0.00580109  0.96160952  0.97289302  1  0.077158  0  0.007634  0.066108  0  3.877971  0
C  C98  1  0.93252058  0.91485316  0.00911840  1  0.010914  0  -0.068062  -0.034478  0  3.880352  0
C  C99  1  0.82285192  0.81388088  0.93252936  1  -0.177936  0  -0.098064  -0.107098  0  3.957915  0
C  C100  1  0.79643963  0.78867345  0.84605140  1  0.059053  0  -0.153222  -0.280744  0  3.784561  0
C  C101  1  0.86150114  0.84996050  0.82177759  1  -0.104539  0  -0.001729  0.124502  0  3.963819  0
C  C102  1  0.90078214  0.83784765  0.74939918  1  -0.03774  0  -0.158271  -0.202801  0  3.857512  0
C  C103  1  0.45386039  0.21929189  0.88279185  1  0.357918  0  0.010679  -0.051516  0  3.981949  0
C  C104  1  0.99934829  0.94962155  0.81558739  1  -0.064666  0  -0.161928  -0.196428  0  3.905113  0
C  C105  1  0.68588548  0.29012970  0.15501635  1  0.430029  0  0.007478  -0.043748  0  3.95224  0
C  C106  1  0.16683553  0.92863108  0.04488223  1  0.436389  0  0.076336  0.192443  0  3.995564  0
C  C107  1  0.56606888  0.79413886  0.96971458  1  0.354281  0  0.009371  -0.034699  0  3.948116  0
C  C108  1  0.12088261  0.99067230  0.01544850  1  -0.033884  0  -0.045277  -0.11798  0  4.075049  0
C  C109  1  0.18902147  0.89985431  0.67991312  1  -0.071044  0  -0.231256  -0.421181  0  4.003715  0
C  C110  1  0.32224353  0.47866468  0.76709977  1  -0.030467  0  -0.23749  -0.400466  0  3.992942  0
C  C111  1  0.78233511  0.92860682  0.57557282  1  -0.040931  0  -0.238469  -0.40681  0  3.999073  0
C  C112  1  0.11521904  0.82676081  0.04792537  1  -0.077321  0  -0.235002  -0.418676  0  4.004121  0
C  C113  1  0.15041847  0.76447766  0.82067888  1  0.442724  0  0.006636  -0.043064  0  4.014892  0
C  C114  1  0.86159556  0.06192986  0.02241624  1  0.443283  0  0.007104  -0.048771  0  3.989719  0
C  C115  1  0.82843112  0.97408728  0.09901479  1  0.36792  0  0.001929  -0.070125  0  4.007011  0
N  N116  1  0.30137484  0.06105952  0.05135503  1  -0.717867  0  -0.28476  -0.255749  0  3.271436  0
N  N117  1  0.47156257  0.93956216  0.16505245  1  -0.789283  0  -0.276058  -0.206295  0  3.549899  0
N  N118  1  0.60273782  0.19631572  0.92908924  1  -0.768336  0  -0.266934  -0.180828  0  3.52849  0
N  N119  1  0.57460235  0.94753786  0.19132047  1  -0.797851  0  -0.280691  -0.169282  0  3.604011  0
N  N120  1  0.49232724  0.15106073  0.89923350  1  -0.816393  0  -0.291801  -0.197915  0  3.668384  0
N  N121  1  0.64180709  0.18563234  0.09817749  1  -0.796878  0  -0.285662  -0.194787  0  3.620108  0
N  N122  1  0.27371497  0.97243368  0.06549272  1  -0.81339  0  -0.303019  -0.262562  0  3.63113  0
N  N123  1  0.48682623  0.92803237  0.83772789  1  -0.773309  0  -0.293503  -0.19909  0  3.605175  0
N  N124  1  0.53199584  0.86838974  0.99861684  1  -0.807738  0  -0.288697  -0.200142  0  3.605024  0
N  N125  1  0.23948994  0.85496575  0.87948010  1  -0.736519  0  -0.249868  -0.204522  0  3.43806  0
N  N126  1  0.79690503  0.09171775  0.05662191  1  -0.790373  0  -0.279207  -0.189622  0  3.517315  0
N  N127  1  0.77582669  0.03642375  0.10441330  1  -0.779315  0  -0.283237  -0.177248  0  3.547815  0
N  N128  1  0.25921936  0.91119296  0.83301177  1  -0.820236  0  -0.298673  -0.257347  0  3.650145  0
N  N129  1  0.59731300  0.97991500  0.88135992  1  -0.812216  0  -0.281057  -0.18674  0  3.597889  0
N  N130  1  0.42515542  0.81704808  0.97779670  1  -0.795902  0  -0.280687  -0.187068  0  3.646212  0
N  N131  1  0.61286301  0.12925612  0.14222124  1  -0.808294  0  -0.291698  -0.199866  0  3.624833  0
