# generated using pymatgen
data_ZnH18C30NO4
_symmetry_space_group_name_H-M   'P 1'
_cell_length_a   15.69183598
_cell_length_b   15.80113576
_cell_length_c   15.80112660
_cell_angle_alpha   118.40833705
_cell_angle_beta   92.28659680
_cell_angle_gamma   92.28665460
_symmetry_Int_Tables_number   1
_chemical_formula_structural   ZnH18C30NO4
_chemical_formula_sum   'Zn4 H72 C120 N4 O16'
_cell_volume   3435.59827242
_cell_formula_units_Z   4
loop_
 _symmetry_equiv_pos_site_id
 _symmetry_equiv_pos_as_xyz
  1  'x, y, z'
loop_
 _atom_site_type_symbol
 _atom_site_label
 _atom_site_symmetry_multiplicity
 _atom_site_fract_x
 _atom_site_fract_y
 _atom_site_fract_z
 _atom_site_occupancy
 _atom_site_pbe_bader_charge
 _atom_site_pbe_bader_spin_density
 _atom_site_pbe_cm5_charge
 _atom_site_pbe_ddec_charge
 _atom_site_pbe_ddec_spin_density
 _atom_site_pbe_ddec_sum_bond_order
 _atom_site_pbe_magmom
Zn  Zn0  1  0.93330353  0.06124375  0.05134300  1  1.298983  0  0.671681  0.830148  0  2.399927  0
Zn  Zn1  1  0.56669589  0.94865775  0.93875613  1  1.298988  0  0.671685  0.830135  0  2.399914  0
Zn  Zn2  1  0.06669593  0.93875608  0.94865696  1  1.298832  0  0.6717  0.830175  0  2.399921  0
Zn  Zn3  1  0.43330425  0.05134280  0.06124355  1  1.29883  0  0.671694  0.830193  0  2.399889  0
H  H4  1  0.93464447  0.19487671  0.25839377  1  0.125006  0  0.120037  0.094034  0  1.005686  0
H  H5  1  0.56535439  0.74160584  0.80512308  1  0.124987  0  0.120037  0.09401  0  1.005648  0
H  H6  1  0.06535498  0.80512312  0.74160619  1  0.124999  0  0.120033  0.094013  0  1.005683  0
H  H7  1  0.43464507  0.25839399  0.19487687  1  0.124999  0  0.120035  0.094018  0  1.005674  0
H  H8  1  0.83752188  0.30879440  0.37589454  1  0.094907  0  0.102832  0.110925  0  1.051783  0
H  H9  1  0.66247784  0.62410596  0.69120614  1  0.094906  0  0.102806  0.110898  0  1.051795  0
H  H10  1  0.16247758  0.69120543  0.62410542  1  0.094897  0  0.102833  0.110919  0  1.051777  0
H  H11  1  0.33752225  0.37589387  0.30879384  1  0.094915  0  0.102813  0.110922  0  1.051786  0
H  H12  1  0.66061287  0.24520122  0.13299694  1  0.106945  0  0.110527  0.121995  0  1.021329  0
H  H13  1  0.83938669  0.86700308  0.75480046  1  0.106909  0  0.110514  0.122015  0  1.021288  0
H  H14  1  0.33938667  0.75480005  0.86700306  1  0.106904  0  0.110525  0.122008  0  1.021327  0
H  H15  1  0.16061336  0.13299603  0.24519918  1  0.10691  0  0.110506  0.122005  0  1.021314  0
H  H16  1  0.76360348  0.13219935  0.02634120  1  0.125968  0  0.124724  0.099326  0  0.992235  0
H  H17  1  0.73639621  0.97365941  0.86780226  1  0.125901  0  0.124728  0.099321  0  0.992216  0
H  H18  1  0.23639606  0.86780192  0.97365944  1  0.125965  0  0.124732  0.099335  0  0.992214  0
H  H19  1  0.26360452  0.02634042  0.13219711  1  0.1259  0  0.124739  0.099339  0  0.992204  0
H  H20  1  0.67630976  0.38124362  0.52492288  1  0.118019  0  0.099792  0.099795  0  1.036726  0
H  H21  1  0.82368988  0.47507725  0.61875693  1  0.118118  0  0.099788  0.099786  0  1.036713  0
H  H22  1  0.32368906  0.61875621  0.47507704  1  0.118001  0  0.099811  0.099794  0  1.036731  0
H  H23  1  0.17631017  0.52492186  0.38124270  1  0.118109  0  0.099806  0.099795  0  1.036733  0
H  H24  1  0.67730499  0.40988897  0.69374497  1  0.053648  0  0.099703  0.095618  0  1.006856  0
H  H25  1  0.82269439  0.30625563  0.59011134  1  0.054009  0  0.099689  0.095613  0  1.006882  0
H  H26  1  0.32269447  0.59011086  0.30625498  1  0.053635  0  0.099707  0.095632  0  1.006832  0
H  H27  1  0.17730570  0.69374420  0.40988800  1  0.054013  0  0.099721  0.095652  0  1.006796  0
H  H28  1  0.56645320  0.50508910  0.80100670  1  0.055254  0  0.099305  0.096499  0  1.027141  0
H  H29  1  0.93354633  0.19899439  0.49491173  1  0.055258  0  0.099299  0.096495  0  1.027144  0
H  H30  1  0.43354694  0.49491145  0.19899362  1  0.055245  0  0.0993  0.096496  0  1.027132  0
H  H31  1  0.06645312  0.80100544  0.50508823  1  0.055267  0  0.099303  0.096491  0  1.027097  0
H  H32  1  0.45306912  0.57107554  0.73964695  1  0.086801  0  0.101899  0.103118  0  1.023181  0
H  H33  1  0.04692968  0.26035280  0.42892388  1  0.086812  0  0.101903  0.103117  0  1.023191  0
H  H34  1  0.54693034  0.42892429  0.26035364  1  0.086806  0  0.101903  0.103113  0  1.023211  0
H  H35  1  0.95306973  0.73964631  0.57107573  1  0.086809  0  0.101901  0.103098  0  1.023219  0
H  H36  1  0.73379925  0.84100965  0.01989351  1  0.135421  0  0.106863  0.117273  0  1.019698  0
H  H37  1  0.76620112  0.98010672  0.15898957  1  0.135152  0  0.106856  0.117259  0  1.019717  0
H  H38  1  0.26620084  0.15899018  0.98010647  1  0.13516  0  0.10687  0.117289  0  1.019673  0
H  H39  1  0.23379961  0.01989311  0.84100980  1  0.135425  0  0.106846  0.117259  0  1.01969  0
H  H40  1  0.65876916  0.69409651  0.00657700  1  0.05727  0  0.100728  0.102646  0  1.011671  0
H  H41  1  0.84123007  0.99342256  0.30590278  1  0.057311  0  0.10072  0.102649  0  1.011694  0
H  H42  1  0.34123030  0.30590332  0.99342295  1  0.057274  0  0.100724  0.102656  0  1.011687  0
H  H43  1  0.15876934  0.00657655  0.69409683  1  0.05728  0  0.100728  0.10266  0  1.01167  0
H  H44  1  0.85251578  0.52231551  0.82707623  1  0.060008  0  0.096065  0.093933  0  1.008398  0
H  H45  1  0.64748422  0.17292346  0.47768465  1  0.060013  0  0.096068  0.093933  0  1.008369  0
H  H46  1  0.14748432  0.47768432  0.17292311  1  0.060018  0  0.096066  0.093934  0  1.0084  0
H  H47  1  0.35251523  0.82707637  0.52231467  1  0.060043  0  0.096053  0.093898  0  1.008423  0
H  H48  1  0.92921850  0.67207128  0.84554733  1  0.108351  0  0.104953  0.112923  0  0.997641  0
H  H49  1  0.57078204  0.15445348  0.32792924  1  0.108351  0  0.104946  0.112902  0  0.997656  0
H  H50  1  0.07078164  0.32792928  0.15445363  1  0.108349  0  0.104937  0.112907  0  0.997623  0
H  H51  1  0.42921805  0.84554635  0.67207010  1  0.10835  0  0.104945  0.112902  0  0.997637  0
H  H52  1  0.74664701  0.44407425  0.86480527  1  0.029244  0  0.096635  0.086794  0  1.02241  0
H  H53  1  0.75335288  0.13519324  0.55592487  1  0.029277  0  0.096644  0.086805  0  1.02236  0
H  H54  1  0.25335244  0.55592558  0.13519405  1  0.029257  0  0.096654  0.0868  0  1.022368  0
H  H55  1  0.24664849  0.86480659  0.44407452  1  0.029261  0  0.096627  0.086778  0  1.022386  0
H  H56  1  0.63153312  0.56592179  0.02668391  1  0.068328  0  0.101358  0.102162  0  1.006214  0
H  H57  1  0.86846695  0.97331489  0.43407736  1  0.068319  0  0.101353  0.102145  0  1.006189  0
H  H58  1  0.36846634  0.43407803  0.97331478  1  0.068334  0  0.10136  0.102147  0  1.006209  0
H  H59  1  0.13153374  0.02668422  0.56592167  1  0.068345  0  0.101349  0.102124  0  1.006233  0
H  H60  1  0.53459608  0.47790402  0.07180411  1  0.036506  0  0.097148  0.095733  0  1.02029  0
H  H61  1  0.96540354  0.92819653  0.52209580  1  0.036447  0  0.09715  0.095771  0  1.020278  0
H  H62  1  0.46540283  0.52209726  0.92819777  1  0.036494  0  0.097148  0.095781  0  1.02031  0
H  H63  1  0.03459715  0.07180258  0.47790259  1  0.036517  0  0.09716  0.0958  0  1.020276  0
H  H64  1  0.48610083  0.32676970  0.07475573  1  0.091624  0  0.101456  0.101176  0  1.032012  0
H  H65  1  0.01389958  0.92524424  0.67323025  1  0.091626  0  0.101475  0.101206  0  1.032012  0
H  H66  1  0.51389871  0.67323158  0.92524554  1  0.09158  0  0.101478  0.101203  0  1.031991  0
H  H67  1  0.98610102  0.07475343  0.32676809  1  0.091576  0  0.101473  0.101196  0  1.032008  0
H  H68  1  0.67998321  0.17573176  0.88634761  1  0.092368  0  0.102882  0.105204  0  1.015464  0
H  H69  1  0.82001718  0.11365195  0.82426784  1  0.092482  0  0.102884  0.10521  0  1.015457  0
H  H70  1  0.32001565  0.82426880  0.11365266  1  0.092433  0  0.102885  0.105218  0  1.015417  0
H  H71  1  0.17998479  0.88634715  0.17573061  1  0.09233  0  0.102877  0.105199  0  1.015419  0
H  H72  1  0.72958614  0.32428453  0.88222732  1  0.044074  0  0.098771  0.097969  0  1.012114  0
H  H73  1  0.77041354  0.11777258  0.67571492  1  0.044057  0  0.098771  0.097957  0  1.012094  0
H  H74  1  0.27041340  0.67571675  0.11777395  1  0.044045  0  0.098762  0.097934  0  1.012118  0
H  H75  1  0.22958715  0.88222653  0.32428410  1  0.044044  0  0.098762  0.097934  0  1.012123  0
C  C76  1  0.87341791  0.20902673  0.23433312  1  0.458448  0  0.053285  0.101571  0  3.93263  0
C  C77  1  0.62658081  0.76566764  0.79097367  1  0.457927  0  0.053299  0.101598  0  3.932556  0
C  C78  1  0.12658154  0.79097311  0.76566746  1  0.458286  0  0.053328  0.101659  0  3.932556  0
C  C79  1  0.37341864  0.23433219  0.20902628  1  0.458271  0  0.053316  0.101624  0  3.93262  0
C  C80  1  0.81964838  0.27213416  0.29897125  1  0.032651  0  -0.0764  -0.170839  0  3.913917  0
C  C81  1  0.68035030  0.70102877  0.72786630  1  0.033223  0  -0.076409  -0.170837  0  3.913831  0
C  C82  1  0.18035107  0.72786567  0.70102871  1  0.033022  0  -0.076407  -0.170834  0  3.913876  0
C  C83  1  0.31964916  0.29897106  0.27213366  1  0.032837  0  -0.076394  -0.170851  0  3.913811  0
C  C84  1  0.74066946  0.28620662  0.26352410  1  0.060494  0  0.021405  0.175451  0  4.104839  0
C  C85  1  0.75933060  0.73647572  0.71379509  1  0.06004  0  0.021451  0.175541  0  4.104837  0
C  C86  1  0.25932940  0.71379393  0.73647617  1  0.06029  0  0.021426  0.175421  0  4.104785  0
C  C87  1  0.24066950  0.26352412  0.28620615  1  0.060444  0  0.021429  0.17552  0  4.104848  0
C  C88  1  0.72095833  0.23655787  0.16322316  1  0.048648  0  -0.072099  -0.161437  0  3.891523  0
C  C89  1  0.77904115  0.83677809  0.76344285  1  0.048581  0  -0.072114  -0.161518  0  3.891517  0
C  C90  1  0.27904176  0.76344197  0.83677745  1  0.048676  0  -0.072093  -0.161411  0  3.891542  0
C  C91  1  0.22095894  0.16322174  0.23655713  1  0.048596  0  -0.072097  -0.161483  0  3.891592  0
C  C92  1  0.77812978  0.17388279  0.10389002  1  0.454722  0  0.060036  0.113784  0  3.914461  0
C  C93  1  0.72186951  0.89611015  0.82611676  1  0.454811  0  0.060056  0.113813  0  3.914521  0
C  C94  1  0.22186963  0.82611632  0.89610959  1  0.454722  0  0.060032  0.11375  0  3.914503  0
C  C95  1  0.27813118  0.10388896  0.17388290  1  0.454801  0  0.060052  0.113794  0  3.914573  0
C  C96  1  0.68133297  0.34546030  0.32619628  1  -0.090356  0  -0.025906  -0.085505  0  4.042872  0
C  C97  1  0.81866524  0.67380868  0.65454928  1  -0.090518  0  -0.025942  -0.085594  0  4.04261  0
C  C98  1  0.31866793  0.65454242  0.67380510  1  -0.431465  0  -0.025901  -0.085473  0  4.042872  0
C  C99  1  0.18133358  0.32619116  0.34545318  1  -0.43113  0  -0.025951  -0.085591  0  4.042678  0
C  C100  1  0.62705867  0.39295651  0.37871276  1  -0.233423  0  -0.025763  -0.070284  0  4.124817  0
C  C101  1  0.87294737  0.62128428  0.60704699  1  -0.232609  0  -0.025673  -0.070118  0  4.124607  0
C  C102  1  0.37294232  0.60704765  0.62128804  1  0.108229  0  -0.02578  -0.07027  0  4.124871  0
C  C103  1  0.12705336  0.37871555  0.39295238  1  0.107987  0  -0.025691  -0.070148  0  4.124685  0
C  C104  1  0.56402039  0.44630970  0.43896668  1  0.076338  0  0.007616  0.044099  0  4.050306  0
C  C105  1  0.93597918  0.56103608  0.55369563  1  0.07533  0  0.007606  0.043948  0  4.050668  0
C  C106  1  0.43597988  0.55369302  0.56103531  1  0.075414  0  0.007677  0.044066  0  4.050437  0
C  C107  1  0.06401964  0.43896376  0.44630494  1  0.075321  0  0.007592  0.043942  0  4.050654  0
C  C108  1  0.56470872  0.46122305  0.53533899  1  -0.007162  0  0.001995  0.037666  0  3.965511  0
C  C109  1  0.93529138  0.46466160  0.53877820  1  -0.007082  0  0.002005  0.037713  0  3.96534  0
C  C110  1  0.43529082  0.53877822  0.46466101  1  -0.007123  0  0.00201  0.037697  0  3.965393  0
C  C111  1  0.06470808  0.53533823  0.46122112  1  -0.007195  0  0.002023  0.037738  0  3.965347  0
C  C112  1  0.62795548  0.42306085  0.57239064  1  -0.057088  0  -0.089322  -0.129783  0  3.980295  0
C  C113  1  0.87204485  0.42760910  0.57694031  1  -0.056927  0  -0.08929  -0.129713  0  3.980218  0
C  C114  1  0.37204402  0.57693970  0.42760902  1  -0.05694  0  -0.089324  -0.129746  0  3.980278  0
C  C115  1  0.12795525  0.57239073  0.42305904  1  -0.056834  0  -0.089314  -0.129772  0  3.980291  0
C  C116  1  0.62811512  0.43869671  0.66581857  1  -0.036919  0  -0.090176  -0.080617  0  4.020654  0
C  C117  1  0.87188427  0.33418053  0.56130338  1  -0.037328  0  -0.090183  -0.080674  0  4.020646  0
C  C118  1  0.37188433  0.56130312  0.33418075  1  -0.036935  0  -0.090181  -0.08065  0  4.02064  0
C  C119  1  0.12811515  0.66581858  0.43869623  1  -0.037476  0  -0.090197  -0.08065  0  4.020632  0
C  C120  1  0.56472342  0.49281284  0.72696473  1  -0.024732  0  -0.088111  -0.075974  0  4.008245  0
C  C121  1  0.93527681  0.27303504  0.50718692  1  -0.024736  0  -0.088098  -0.075937  0  4.008168  0
C  C122  1  0.43527676  0.50718843  0.27303530  1  -0.024729  0  -0.088133  -0.07599  0  4.008258  0
C  C123  1  0.06472324  0.72696406  0.49281145  1  -0.024581  0  -0.088111  -0.075946  0  4.00816  0
C  C124  1  0.50221446  0.52982258  0.69313803  1  -0.047475  0  -0.086818  -0.123662  0  3.96988  0
C  C125  1  0.99778490  0.30686191  0.47017679  1  -0.047488  0  -0.086845  -0.123679  0  3.969881  0
C  C126  1  0.49778564  0.47017725  0.30686195  1  -0.047457  0  -0.086813  -0.123669  0  3.969889  0
C  C127  1  0.00221456  0.69313792  0.52982316  1  -0.047466  0  -0.086838  -0.123659  0  3.96985  0
C  C128  1  0.50020531  0.51554377  0.59701945  1  -0.022374  0  0.002706  0.036231  0  3.965805  0
C  C129  1  0.99979439  0.40298038  0.48445531  1  -0.022362  0  0.002737  0.036261  0  3.965608  0
C  C130  1  0.49979424  0.48445750  0.40298056  1  -0.022643  0  0.002754  0.036287  0  3.965639  0
C  C131  1  0.00020575  0.59702017  0.51554438  1  -0.022367  0  0.002706  0.036237  0  3.965596  0
C  C132  1  0.88984375  0.85500477  0.95485763  1  1.560783  0  0.208862  0.577975  0  4.198972  0
C  C133  1  0.61015739  0.04514292  0.14499534  1  1.560768  0  0.208837  0.577984  0  4.198991  0
C  C134  1  0.11015634  0.14499506  0.04514235  1  1.560786  0  0.208874  0.578036  0  4.198905  0
C  C135  1  0.38984398  0.95485691  0.85500406  1  1.560775  0  0.208879  0.578051  0  4.1989  0
C  C136  1  0.83801938  0.76568082  0.93656319  1  -0.063898  0  -0.018831  -0.035175  0  3.961126  0
C  C137  1  0.66198132  0.06343702  0.23431792  1  -0.06392  0  -0.018839  -0.035246  0  3.961121  0
C  C138  1  0.16198131  0.23431829  0.06343710  1  -0.06393  0  -0.018822  -0.035249  0  3.961222  0
C  C139  1  0.33801877  0.93656281  0.76568206  1  -0.063926  0  -0.018827  -0.035247  0  3.961103  0
C  C140  1  0.76026911  0.77103936  0.97941700  1  -0.026849  0  -0.080467  -0.083622  0  3.95747  0
C  C141  1  0.73973107  0.02058355  0.22896062  1  -0.026852  0  -0.080473  -0.083594  0  3.957568  0
C  C142  1  0.23973034  0.22896047  0.02058296  1  -0.026855  0  -0.080471  -0.0836  0  3.957446  0
C  C143  1  0.26026966  0.97941628  0.77103938  1  -0.026855  0  -0.080449  -0.083567  0  3.957486  0
C  C144  1  0.71815731  0.68812398  0.97109985  1  -0.090026  0  -0.089761  -0.129525  0  3.945895  0
C  C145  1  0.78184283  0.02890054  0.31187592  1  -0.090072  0  -0.089779  -0.12958  0  3.945998  0
C  C146  1  0.28184278  0.31187585  0.02890012  1  -0.090043  0  -0.089786  -0.129596  0  3.94594  0
C  C147  1  0.21815726  0.97109929  0.68812406  1  -0.090026  0  -0.089786  -0.129589  0  3.945938  0
C  C148  1  0.75208734  0.59732746  0.91866221  1  0.036829  0  -0.013888  0.104985  0  4.05864  0
C  C149  1  0.74791242  0.08133727  0.40267184  1  0.037271  0  -0.013877  0.10498  0  4.058579  0
C  C150  1  0.24791335  0.40267165  0.08133745  1  0.037274  0  -0.013883  0.104995  0  4.058586  0
C  C151  1  0.25208699  0.91866184  0.59732777  1  0.037262  0  -0.013879  0.104967  0  4.058597  0
C  C152  1  0.82662633  0.59240346  0.86987488  1  -0.071359  0  -0.09418  -0.141033  0  3.986741  0
C  C153  1  0.67337400  0.13012617  0.40759590  1  -0.071771  0  -0.094176  -0.140998  0  3.986723  0
C  C154  1  0.17337372  0.40759565  0.13012602  1  -0.071767  0  -0.094176  -0.141025  0  3.986736  0
C  C155  1  0.32662609  0.86987366  0.59240281  1  -0.071828  0  -0.094165  -0.140973  0  3.98673  0
C  C156  1  0.86969162  0.67534459  0.87976736  1  -0.022748  0  -0.086155  -0.087484  0  3.99426  0
C  C157  1  0.63030895  0.12023477  0.32465570  1  -0.02276  0  -0.08615  -0.087456  0  3.994213  0
C  C158  1  0.13030911  0.32465525  0.12023391  1  -0.02276  0  -0.086157  -0.087463  0  3.994259  0
C  C159  1  0.36969119  0.87976578  0.67534399  1  -0.022742  0  -0.086146  -0.087442  0  3.994147  0
C  C160  1  0.71788723  0.50936152  0.91631873  1  -0.072513  0  -0.089391  -0.125282  0  4.015107  0
C  C161  1  0.78211381  0.08368024  0.49063826  1  -0.072512  0  -0.08937  -0.125253  0  4.0151  0
C  C162  1  0.28211414  0.49063831  0.08368067  1  -0.072512  0  -0.089351  -0.125183  0  4.015028  0
C  C163  1  0.21788628  0.91631959  0.50936172  1  -0.072518  0  -0.089376  -0.125249  0  4.015147  0
C  C164  1  0.66038109  0.50132522  0.97413267  1  -0.042252  0  -0.092504  -0.140432  0  3.997861  0
C  C165  1  0.83961758  0.02586714  0.49867455  1  -0.042278  0  -0.092503  -0.140407  0  3.998034  0
C  C166  1  0.33961777  0.49867533  0.02586760  1  -0.042491  0  -0.092541  -0.140484  0  3.997988  0
C  C167  1  0.16038247  0.97413197  0.50132445  1  -0.042489  0  -0.09249  -0.14039  0  3.998016  0
C  C168  1  0.63410422  0.41218703  0.97476280  1  -0.021428  0  -0.011424  0.115725  0  4.042969  0
C  C169  1  0.86589548  0.02523555  0.58781149  1  -0.021429  0  -0.011438  0.115726  0  4.04298  0
C  C170  1  0.36589527  0.58781353  0.02523750  1  -0.021213  0  -0.011469  0.115713  0  4.043032  0
C  C171  1  0.13410453  0.97476283  0.41218654  1  -0.021206  0  -0.011449  0.115762  0  4.042974  0
C  C172  1  0.56612704  0.41129116  0.03022416  1  -0.062358  0  -0.094226  -0.142939  0  3.976373  0
C  C173  1  0.93387278  0.96977564  0.58870798  1  -0.062336  0  -0.094242  -0.143026  0  3.976441  0
C  C174  1  0.43387182  0.58870940  0.96977738  1  -0.06232  0  -0.094286  -0.143141  0  3.976566  0
C  C175  1  0.06612786  0.03022274  0.41129071  1  -0.062321  0  -0.094299  -0.143173  0  3.976528  0
C  C176  1  0.53897461  0.32753646  0.03241331  1  -0.04252  0  -0.089723  -0.099941  0  4.002838  0
C  C177  1  0.96102527  0.96758700  0.67246334  1  -0.042481  0  -0.089737  -0.099962  0  4.00288  0
C  C178  1  0.46102493  0.67246482  0.96758923  1  -0.042471  0  -0.089662  -0.099835  0  4.002822  0
C  C179  1  0.03897470  0.03241067  0.32753498  1  -0.04246  0  -0.089683  -0.099841  0  4.002801  0
C  C180  1  0.57949497  0.24190785  0.98001048  1  -0.034396  0  -0.022127  -0.039857  0  3.977021  0
C  C181  1  0.92050373  0.01999127  0.75809426  1  -0.034352  0  -0.022123  -0.039882  0  3.977044  0
C  C182  1  0.42050457  0.75809343  0.01999206  1  -0.034397  0  -0.022147  -0.039897  0  3.977015  0
C  C183  1  0.07949568  0.98000784  0.24190598  1  -0.034316  0  -0.02213  -0.039934  0  3.977072  0
C  C184  1  0.64810000  0.24227139  0.92584166  1  -0.004584  0  -0.08573  -0.091653  0  4.001404  0
C  C185  1  0.85190015  0.07415804  0.75772900  1  -0.004723  0  -0.085761  -0.091677  0  4.00144  0
C  C186  1  0.35189946  0.75772844  0.07415829  1  -0.004617  0  -0.085788  -0.091751  0  4.001439  0
C  C187  1  0.14810117  0.92584107  0.24227068  1  -0.004666  0  -0.085784  -0.091704  0  4.001458  0
C  C188  1  0.67494231  0.32562535  0.92326745  1  -0.083119  0  -0.092136  -0.133337  0  3.967139  0
C  C189  1  0.82505816  0.07673233  0.67437498  1  -0.083088  0  -0.092112  -0.133284  0  3.967038  0
C  C190  1  0.32505723  0.67437592  0.07673319  1  -0.083134  0  -0.092066  -0.133183  0  3.967127  0
C  C191  1  0.17494252  0.92326678  0.32562404  1  -0.083147  0  -0.092055  -0.133196  0  3.967105  0
C  C192  1  0.55130975  0.15219752  0.98401494  1  1.572637  0  0.209089  0.576091  0  4.201843  0
C  C193  1  0.94869079  0.01598472  0.84780197  1  1.572643  0  0.209116  0.576129  0  4.201677  0
C  C194  1  0.44869098  0.84780232  0.01598570  1  1.572656  0  0.209142  0.576148  0  4.201676  0
C  C195  1  0.05130986  0.98401366  0.15219671  1  1.572659  0  0.209065  0.576074  0  4.20185  0
N  N196  1  0.85299309  0.15992659  0.13855515  1  -1.255428  0  -0.323314  -0.210272  0  3.517498  0
N  N197  1  0.64700798  0.86144555  0.84007371  1  -1.255104  0  -0.323327  -0.210253  0  3.517481  0
N  N198  1  0.14700764  0.84007324  0.86144549  1  -1.255444  0  -0.323356  -0.21032  0  3.517478  0
N  N199  1  0.35299215  0.13855500  0.15992661  1  -1.255454  0  -0.323337  -0.210288  0  3.517566  0
O  O200  1  0.85837539  0.93581828  0.00538144  1  -1.156042  0  -0.311309  -0.535219  0  2.338684  0
O  O201  1  0.64162425  0.99461876  0.06418250  1  -1.156044  0  -0.311303  -0.535201  0  2.338699  0
O  O202  1  0.14162411  0.06418228  0.99461886  1  -1.156035  0  -0.311307  -0.535222  0  2.338676  0
O  O203  1  0.35837585  0.00538107  0.93581811  1  -1.156018  0  -0.311326  -0.535254  0  2.338621  0
O  O204  1  0.96293996  0.84306463  0.91993824  1  -1.172851  0  -0.320808  -0.559353  0  2.355277  0
O  O205  1  0.53706097  0.08006172  0.15693541  1  -1.172821  0  -0.320766  -0.559323  0  2.355238  0
O  O206  1  0.03706013  0.15693520  0.08006111  1  -1.172859  0  -0.320792  -0.559337  0  2.355209  0
O  O207  1  0.46293980  0.91993883  0.84306430  1  -1.172874  0  -0.32079  -0.55935  0  2.355273  0
O  O208  1  0.48691467  0.15735141  0.03221244  1  -1.175114  0  -0.314347  -0.548321  0  2.348505  0
O  O209  1  0.01308521  0.96778714  0.84264811  1  -1.175126  0  -0.314358  -0.548309  0  2.34846  0
O  O210  1  0.51308478  0.84264842  0.96778751  1  -1.175106  0  -0.31434  -0.548293  0  2.348449  0
O  O211  1  0.98691548  0.03221197  0.15735092  1  -1.175084  0  -0.314313  -0.548285  0  2.348502  0
O  O212  1  0.59467482  0.07860200  0.94018604  1  -1.172824  0  -0.317506  -0.54936  0  2.316433  0
O  O213  1  0.90532518  0.05981358  0.92139784  1  -1.172807  0  -0.317526  -0.549408  0  2.316394  0
O  O214  1  0.40532531  0.92139855  0.05981428  1  -1.172819  0  -0.317574  -0.549459  0  2.316416  0
O  O215  1  0.09467487  0.94018553  0.07860116  1  -1.172843  0  -0.317528  -0.549367  0  2.316475  0
