# generated using pymatgen
data_AlH13C12NO5
_symmetry_space_group_name_H-M   'P 1'
_cell_length_a   6.62596349
_cell_length_b   15.08046047
_cell_length_c   17.72802657
_cell_angle_alpha   79.00943416
_cell_angle_beta   87.33290519
_cell_angle_gamma   89.06240618
_symmetry_Int_Tables_number   1
_chemical_formula_structural   AlH13C12NO5
_chemical_formula_sum   'Al4 H52 C48 N4 O20'
_cell_volume   1737.00524715
_cell_formula_units_Z   4
loop_
 _symmetry_equiv_pos_site_id
 _symmetry_equiv_pos_as_xyz
  1  'x, y, z'
loop_
 _atom_site_type_symbol
 _atom_site_label
 _atom_site_symmetry_multiplicity
 _atom_site_fract_x
 _atom_site_fract_y
 _atom_site_fract_z
 _atom_site_occupancy
 _atom_site_pbe_bader_charge
 _atom_site_pbe_bader_spin_density
 _atom_site_pbe_cm5_charge
 _atom_site_pbe_ddec_charge
 _atom_site_pbe_ddec_spin_density
 _atom_site_pbe_ddec_sum_bond_order
 _atom_site_pbe_magmom
Al  Al0  1  0.11734717  0.50194662  0.49960285  1  2.499745  0  0.39635  1.634918  0  2.581  0
Al  Al1  1  0.61701948  0.50118095  0.50181365  1  2.501502  0  0.395809  1.637855  0  2.586163  0
Al  Al2  1  0.64643235  0.99858817  0.99829848  1  2.500736  0  0.401406  1.642729  0  2.57055  0
Al  Al3  1  0.14702242  0.99211459  0.00279365  1  2.501111  0  0.393369  1.641945  0  2.583006  0
H  H4  1  0.09691511  0.10685129  0.20224369  1  0.066986  0  0.10726  0.112571  0  0.992811  0
H  H5  1  0.13702227  0.86605467  0.82182439  1  0.094723  0  0.10994  0.119189  0  0.991399  0
H  H6  1  0.20330968  0.14963155  0.32398090  1  0.060772  0  0.103343  0.105123  0  0.991156  0
H  H7  1  0.99617680  0.82038617  0.70526812  1  0.064336  0  0.100831  0.104376  0  1.000159  0
H  H8  1  0.60376211  0.36309462  0.16743278  1  0.039759  0  0.100647  0.113434  0  1.002589  0
H  H9  1  0.74108965  0.67073873  0.79670802  1  0.046457  0  0.099634  0.109422  0  1.013081  0
H  H10  1  0.16197389  0.24979753  0.42076162  1  0.064301  0  0.104753  0.111669  0  0.998706  0
H  H11  1  0.02882676  0.72800370  0.60223206  1  0.095754  0  0.108  0.117873  0  0.996014  0
H  H12  1  0.66671915  0.38858102  0.29912196  1  0.091003  0  0.10388  0.108837  0  1.003358  0
H  H13  1  0.61765250  0.63603866  0.67615474  1  0.103583  0  0.108567  0.11887  0  0.999352  0
H  H14  1  0.54575660  0.82409626  0.19928495  1  0.041011  0  0.092854  0.095004  0  0.994861  0
H  H15  1  0.13747337  0.12574721  0.76452322  1  0.015121  0  0.088872  0.08447  0  0.982982  0
H  H16  1  0.62415554  0.72527605  0.16693507  1  0.041154  0  0.090378  0.086818  0  1.012291  0
H  H17  1  0.06091358  0.19930771  0.82716690  1  0.026484  0  0.090716  0.088182  0  1.017365  0
H  H18  1  0.55454158  0.65426011  0.29619368  1  0.034893  0  0.092978  0.095176  0  0.985527  0
H  H19  1  0.06296095  0.32506120  0.72779956  1  0.031669  0  0.08831  0.085909  0  0.991848  0
H  H20  1  0.57253259  0.75535584  0.33081396  1  0.055682  0  0.091876  0.090729  0  0.980029  0
H  H21  1  0.07665208  0.24794879  0.66418404  1  0.019411  0  0.091049  0.08912  0  0.982747  0
H  H22  1  0.81924476  0.90028514  0.26729200  1  0.020055  0  0.091738  0.091039  0  0.976275  0
H  H23  1  0.51347759  0.08929711  0.74436223  1  0.039018  0  0.093916  0.092795  0  0.974866  0
H  H24  1  0.90563257  0.79902082  0.37914670  1  0.052188  0  0.095396  0.094504  0  0.974543  0
H  H25  1  0.42757756  0.18730386  0.63130139  1  0.022303  0  0.091872  0.088908  0  0.971442  0
H  H26  1  0.17806508  0.75727830  0.19137512  1  0.023392  0  0.09745  0.041849  0  0.975491  0
H  H27  1  0.60455313  0.27179602  0.84527617  1  0.015655  0  0.092362  0.026333  0  1.019587  0
H  H28  1  0.87981205  0.60341332  0.23203832  1  0.017513  0  0.095386  0.096811  0  0.981896  0
H  H29  1  0.36369348  0.40751863  0.75298579  1  0.04299  0  0.099561  0.102076  0  0.993157  0
H  H30  1  0.11443759  0.61732964  0.27304887  1  0.049732  0  0.096704  0.101366  0  0.99756  0
H  H31  1  0.60832758  0.36888882  0.73016716  1  0.01577  0  0.09505  0.096255  0  0.985086  0
H  H32  1  0.07657513  0.88969820  0.23768267  1  0.031196  0  0.092987  0.090688  0  0.995282  0
H  H33  1  0.69040333  0.16564933  0.76682318  1  0.039714  0  0.092202  0.091494  0  0.996278  0
H  H34  1  0.12951111  0.76250575  0.33552060  1  0.053887  0  0.096322  0.098997  0  0.98026  0
H  H35  1  0.64520415  0.24885557  0.64245345  1  0.061763  0  0.094446  0.097077  0  0.997353  0
H  H36  1  0.07426887  0.75308564  0.06749356  1  0.420572  0  0.293024  0.238114  0  0.964296  0
H  H37  1  0.16311697  0.61199618  0.04490160  1  0.027806  0  0.093891  0.095573  0  0.99914  0
H  H38  1  0.08951959  0.56097008  0.14065400  1  0.013723  0  0.093884  0.096616  0  1.007085  0
H  H39  1  0.31095286  0.62885164  0.12260455  1  0.013775  0  0.083114  0.078177  0  1.016295  0
H  H40  1  0.31105977  0.25999855  0.93215550  1  0.389526  0  0.289767  0.230658  0  0.96786  0
H  H41  1  0.25649477  0.40177745  0.95421506  1  0.053313  0  0.09735  0.100484  0  0.996211  0
H  H42  1  0.29458416  0.45071594  0.85582240  1  0.02308  0  0.095354  0.101632  0  0.999381  0
H  H43  1  0.50580285  0.40957214  0.91029470  1  -0.013702  0  0.078575  0.066706  0  1.038484  0
H  H44  1  0.58911377  0.34545337  0.03945538  1  0.387749  0  0.304413  0.24092  0  0.963282  0
H  H45  1  0.77745630  0.34177661  0.93122983  1  0.038069  0  0.09907  0.102228  0  1.013431  0
H  H46  1  0.75436980  0.22213133  0.94999825  1  0.079001  0  0.099784  0.112781  0  1.032142  0
H  H47  1  0.95674844  0.27432301  0.98740737  1  0.069032  0  0.098674  0.103798  0  1.014859  0
H  H48  1  0.83274554  0.69564142  0.91366654  1  0.41195  0  0.30465  0.242951  0  0.94233  0
H  H49  1  0.75505739  0.69041932  0.04288949  1  0.119661  0  0.09606  0.100943  0  1.079707  0
H  H50  1  0.52231401  0.65588133  0.00866119  1  0.003859  0  0.078161  0.068564  0  1.03572  0
H  H51  1  0.55698034  0.76857666  0.02328636  1  0.065107  0  0.103763  0.117013  0  1.015794  0
H  H52  1  0.38267166  0.45920130  0.41630538  1  0.613802  0  0.347707  0.422605  0  0.86649  0
H  H53  1  0.86306753  0.45378524  0.59773023  1  0.616812  0  0.346741  0.420059  0  0.873839  0
H  H54  1  0.38750917  0.03729112  0.08498740  1  0.622416  0  0.351851  0.431262  0  0.855406  0
H  H55  1  0.91652183  0.03017889  0.90095727  1  0.623383  0  0.35303  0.431314  0  0.855675  0
C  C56  1  0.36671095  0.37731931  0.61132160  1  1.571687  0  0.270258  0.635935  0  4.029741  0
C  C57  1  0.86238938  0.62095250  0.39093332  1  1.575506  0  0.276279  0.637443  0  4.026745  0
C  C58  1  0.34076522  0.61572411  0.57740910  1  1.585627  0  0.267417  0.634838  0  4.107644  0
C  C59  1  0.89182878  0.38625295  0.42117146  1  1.58102  0  0.263004  0.639461  0  4.102224  0
C  C60  1  0.88147102  0.18210102  0.12900819  1  -0.049245  0  -0.021051  -0.13216  0  3.954372  0
C  C61  1  0.41554568  0.81516285  0.86960871  1  -0.075113  0  -0.018449  -0.127408  0  3.934751  0
C  C62  1  0.90863052  0.32381812  0.36534235  1  -0.005681  0  -0.018867  -0.037788  0  4.007324  0
C  C63  1  0.32653611  0.67693578  0.63419063  1  -0.077966  0  -0.019723  -0.044119  0  4.011276  0
C  C64  1  0.08711481  0.20240188  0.31840558  1  -0.056336  0  -0.092602  -0.131805  0  4.016196  0
C  C65  1  0.13156734  0.77967182  0.69909837  1  -0.081716  0  -0.095898  -0.138288  0  4.01561  0
C  C66  1  0.06372914  0.25684351  0.37234124  1  -0.04786  0  -0.096481  -0.117937  0  4.020451  0
C  C67  1  0.14915323  0.72939323  0.64179523  1  -0.008042  0  -0.09273  -0.11459  0  4.008157  0
C  C68  1  0.78361381  0.33625056  0.30376398  1  -0.07339  0  -0.085207  -0.150187  0  3.94011  0
C  C69  1  0.48297929  0.67672224  0.68333006  1  -0.019526  0  -0.08129  -0.144144  0  3.925109  0
C  C70  1  0.81299446  0.28531160  0.24456324  1  0.02455  0  -0.009771  0.095791  0  4.041433  0
C  C71  1  0.46546856  0.72467708  0.74466753  1  -0.03126  0  -0.010359  0.094614  0  4.043556  0
C  C72  1  0.96554954  0.21554073  0.25323804  1  -0.021925  0  -0.016409  0.05881  0  4.023514  0
C  C73  1  0.28546004  0.77727374  0.75277943  1  -0.012421  0  -0.016945  0.055316  0  4.026684  0
C  C74  1  0.99106013  0.16381902  0.19481639  1  -0.014432  0  -0.080893  -0.133643  0  3.969613  0
C  C75  1  0.26819252  0.82274455  0.81566216  1  -0.002738  0  -0.0808  -0.135938  0  3.960091  0
C  C76  1  0.74851217  0.25912967  0.11575934  1  0.392963  0  0.097622  0.217724  0  4.085515  0
C  C77  1  0.58650658  0.75585574  0.86544270  1  0.440195  0  0.09878  0.217529  0  4.077556  0
C  C78  1  0.70851905  0.30564436  0.17558410  1  0.003564  0  -0.112614  -0.271906  0  3.979029  0
C  C79  1  0.61146897  0.71550977  0.80132473  1  -0.024222  0  -0.111433  -0.274858  0  3.993588  0
C  C80  1  0.65743312  0.76891163  0.20780018  1  -0.037231  0  -0.16705  -0.192151  0  3.913625  0
C  C81  1  0.17055251  0.19066432  0.78085328  1  0.000575  0  -0.166384  -0.182044  0  3.899331  0
C  C82  1  0.64577057  0.71547577  0.29118988  1  -0.066912  0  -0.163784  -0.184958  0  3.898933  0
C  C83  1  0.15333207  0.26939389  0.71134715  1  -0.020112  0  -0.163012  -0.181207  0  3.89493  0
C  C84  1  0.93649357  0.85182668  0.25515663  1  -0.021877  0  -0.15517  -0.174426  0  3.872251  0
C  C85  1  0.53537391  0.16026856  0.74865079  1  -0.046124  0  -0.15713  -0.17217  0  3.870267  0
C  C86  1  0.02715005  0.73042758  0.18337487  1  0.32423  0  0.010797  0.117405  0  3.815419  0
C  C87  1  0.44861678  0.27932238  0.82509231  1  0.315955  0  0.008577  0.118905  0  3.801471  0
C  C88  1  0.87066289  0.80775550  0.18798113  1  0.027823  0  -0.011531  -0.034333  0  3.78353  0
C  C89  1  0.38589920  0.18524312  0.81103032  1  0.040401  0  -0.012816  -0.031768  0  3.779638  0
C  C90  1  0.86157630  0.69009145  0.31644080  1  0.042595  0  -0.012056  0.022846  0  3.801924  0
C  C91  1  0.36545485  0.30399489  0.68334289  1  0.042865  0  -0.016462  0.021797  0  3.808745  0
C  C92  1  0.96822609  0.77728789  0.32699806  1  -0.060469  0  -0.153643  -0.17805  0  3.856939  0
C  C93  1  0.50120458  0.22349450  0.67076446  1  -0.038281  0  -0.158275  -0.173431  0  3.862874  0
C  C94  1  0.97678580  0.65269864  0.25131018  1  -0.021242  0  -0.158169  -0.237186  0  3.853128  0
C  C95  1  0.45291197  0.34688813  0.74738014  1  -0.036265  0  -0.152257  -0.224695  0  3.812639  0
C  C96  1  0.40195752  0.87796796  0.92536329  1  1.561668  0  0.265053  0.641208  0  4.11182  0
C  C97  1  0.89147370  0.11515648  0.07680406  1  1.584782  0  0.261735  0.652361  0  4.102638  0
C  C98  1  0.40133823  0.11477963  0.88477129  1  1.543467  0  0.267985  0.630194  0  4.034567  0
C  C99  1  0.87935652  0.87727111  0.11370072  1  1.559145  0  0.275449  0.639161  0  4.02831  0
C  C100  1  0.15458438  0.62219614  0.10472057  1  0.279721  0  -0.149119  -0.216077  0  4.024462  0
C  C101  1  0.34530539  0.39607676  0.90141092  1  0.28485  0  -0.149017  -0.218865  0  4.036959  0
C  C102  1  0.79553829  0.28035089  0.97482175  1  0.233988  0  -0.1451  -0.227789  0  3.957232  0
C  C103  1  0.63212214  0.71124324  0.00372143  1  0.215737  0  -0.155957  -0.233344  0  3.976553  0
N  N104  1  0.02563964  0.70051790  0.10948718  1  -1.088316  0  -0.484878  -0.345041  0  3.408435  0
N  N105  1  0.30869736  0.30774249  0.88281951  1  -1.06582  0  -0.486307  -0.349062  0  3.403293  0
N  N106  1  0.67160810  0.28760693  0.04389414  1  -1.122841  0  -0.451175  -0.298225  0  3.542654  0
N  N107  1  0.71758729  0.73705421  0.92516139  1  -1.143722  0  -0.448102  -0.286607  0  3.510918  0
O  O108  1  0.51013790  0.57703774  0.56851825  1  -1.264956  0  -0.233698  -0.589333  0  2.369182  0
O  O109  1  0.05478673  0.39992928  0.45286922  1  -1.264114  0  -0.242958  -0.602532  0  2.336242  0
O  O110  1  0.20072074  0.41671393  0.59149742  1  -1.263838  0  -0.236586  -0.597718  0  2.345112  0
O  O111  1  0.69543060  0.60509947  0.42899931  1  -1.265553  0  -0.230938  -0.575883  0  2.35151  0
O  O112  1  0.18058326  0.60293768  0.54394310  1  -1.258582  0  -0.233399  -0.577082  0  2.324385  0
O  O113  1  0.72099598  0.42347786  0.43133755  1  -1.262922  0  -0.24117  -0.604988  0  2.338256  0
O  O114  1  0.02995098  0.58271163  0.41024245  1  -1.268528  0  -0.234041  -0.587343  0  2.349523  0
O  O115  1  0.53946542  0.39671452  0.57791719  1  -1.270921  0  -0.242501  -0.607256  0  2.361948  0
O  O116  1  0.37390297  0.49894162  0.45342227  1  -1.419477  0  -0.448485  -0.985474  0  2.196218  0
O  O117  1  0.86286062  0.49622419  0.54915504  1  -1.422865  0  -0.449185  -0.986055  0  2.197694  0
O  O118  1  0.23782801  0.07565124  0.91199664  1  -1.271157  0  -0.236444  -0.601891  0  2.405171  0
O  O119  1  0.71670676  0.90162170  0.08035862  1  -1.257513  0  -0.225046  -0.564579  0  2.353547  0
O  O120  1  0.56469904  0.91644269  0.93637049  1  -1.254518  0  -0.230849  -0.584295  0  2.368557  0
O  O121  1  0.06605004  0.08917578  0.05631938  1  -1.268344  0  -0.242909  -0.60741  0  2.343937  0
O  O122  1  0.57408150  0.09860457  0.91387008  1  -1.26607  0  -0.241246  -0.601081  0  2.329765  0
O  O123  1  0.05438509  0.90762689  0.08993147  1  -1.269634  0  -0.238281  -0.60129  0  2.366442  0
O  O124  1  0.72289263  0.08644037  0.05951628  1  -1.25627  0  -0.236576  -0.596328  0  2.332558  0
O  O125  1  0.22853313  0.89272420  0.95497685  1  -1.261387  0  -0.237196  -0.587886  0  2.331517  0
O  O126  1  0.39373556  0.99932548  0.04647736  1  -1.426554  0  -0.449342  -0.992694  0  2.210803  0
O  O127  1  0.90291648  0.99896587  0.95402822  1  -1.428926  0  -0.448269  -0.990824  0  2.208246  0
