# generated using pymatgen
data_AlH12C21NO9
_symmetry_space_group_name_H-M   'P 1'
_cell_length_a   4.13338880
_cell_length_b   13.46512884
_cell_length_c   13.46507703
_cell_angle_alpha   120.00058750
_cell_angle_beta   90.00129157
_cell_angle_gamma   89.99953138
_symmetry_Int_Tables_number   1
_chemical_formula_structural   AlH12C21NO9
_chemical_formula_sum   'Al1 H12 C21 N1 O9'
_cell_volume   649.01341632
_cell_formula_units_Z   1
loop_
 _symmetry_equiv_pos_site_id
 _symmetry_equiv_pos_as_xyz
  1  'x, y, z'
loop_
 _atom_site_type_symbol
 _atom_site_label
 _atom_site_symmetry_multiplicity
 _atom_site_fract_x
 _atom_site_fract_y
 _atom_site_fract_z
 _atom_site_occupancy
 _atom_site_pbe_bader_charge
 _atom_site_pbe_bader_spin_density
 _atom_site_pbe_cm5_charge
 _atom_site_pbe_ddec_charge
 _atom_site_pbe_ddec_spin_density
 _atom_site_pbe_ddec_sum_bond_order
 _atom_site_pbe_magmom
Al  Al0  1  0.97814822  0.49999484  0.49999747  1  2.50783  0  0.440297  1.607871  0  2.556037  0
H  H1  1  0.18117173  0.82170061  0.79607114  1  0.082635  0  0.110924  0.117727  0  0.972925  0
H  H2  1  0.19701125  0.03301163  0.90219317  1  0.076667  0  0.104855  0.115908  0  1.030669  0
H  H3  1  0.80184922  0.02585351  0.63754581  1  0.095118  0  0.109354  0.131746  0  1.023084  0
H  H4  1  0.80186757  0.11168833  0.97413505  1  0.09346  0  0.109352  0.13176  0  1.023074  0
H  H5  1  0.18115157  0.47436132  0.17830459  1  0.089206  0  0.110951  0.117758  0  0.972984  0
H  H6  1  0.19699204  0.36918553  0.96699310  1  0.064821  0  0.104878  0.115978  0  1.030627  0
H  H7  1  0.80184889  0.36245137  0.88830816  1  0.100518  0  0.109327  0.131717  0  1.023159  0
H  H8  1  0.18115344  0.20392138  0.52561741  1  0.085881  0  0.110936  0.117668  0  0.973055  0
H  H9  1  0.19699804  0.09780195  0.63080642  1  0.062488  0  0.10486  0.115859  0  1.030646  0
H  H10  1  0.97050043  0.74117575  0.51627903  1  0.637787  0  0.309809  0.350839  0  0.95317  0
H  H11  1  0.97049746  0.27509141  0.25881630  1  0.622811  0  0.30981  0.350809  0  0.953294  0
H  H12  1  0.97049949  0.48371574  0.72489711  1  0.633706  0  0.309816  0.35086  0  0.953139  0
C  C13  1  0.48246486  0.41876371  0.32298578  1  1.581116  0  0.2864  0.701156  0  4.022306  0
C  C14  1  0.48246963  0.40420558  0.58121997  1  1.510539  0  0.286359  0.701007  0  4.022685  0
C  C15  1  0.48248576  0.67700978  0.59578684  1  1.49653  0  0.286329  0.700964  0  4.022709  0
C  C16  1  0.32401153  0.86690799  0.76294285  1  -0.042925  0  -0.085757  -0.064649  0  4.02937  0
C  C17  1  0.32677732  0.98589905  0.82168368  1  0.03016  0  -0.10497  -0.199147  0  4.016921  0
C  C18  1  0.49278074  0.04517452  0.77608666  1  0.283402  0  0.097163  0.205631  0  4.033512  0
C  C19  1  0.66591016  0.98253481  0.67377803  1  0.048419  0  -0.103183  -0.285118  0  3.942026  0
C  C20  1  0.67801605  0.86321439  0.61759611  1  0.477185  0  0.08431  0.31666  0  4.077681  0
C  C21  1  0.49661763  0.80431854  0.66047517  1  0.033034  0  -0.041878  -0.215035  0  4.024626  0
C  C22  1  0.66590923  0.19124011  0.01746209  1  -0.023913  0  -0.10313  -0.285123  0  3.941918  0
C  C23  1  0.67801174  0.25437427  0.13678220  1  0.567214  0  0.084262  0.316711  0  4.077741  0
C  C24  1  0.49659718  0.35614258  0.19567704  1  -0.041342  0  -0.041904  -0.215205  0  4.024927  0
C  C25  1  0.32397570  0.39602744  0.13309807  1  0.078115  0  -0.085741  -0.064554  0  4.029332  0
C  C26  1  0.32676651  0.33578108  0.01410003  1  -0.070032  0  -0.105036  -0.19939  0  4.01701  0
C  C27  1  0.49277502  0.23091309  0.95482381  1  0.317246  0  0.097193  0.205752  0  4.033451  0
C  C28  1  0.66590235  0.32621820  0.80875281  1  0.048471  0  -0.103122  -0.285064  0  3.942133  0
C  C29  1  0.67799830  0.38240042  0.74561585  1  0.502037  0  0.084236  0.316653  0  4.077793  0
C  C30  1  0.49660165  0.33952352  0.64384094  1  -0.03665  0  -0.041854  -0.21503  0  4.024567  0
C  C31  1  0.32398054  0.23705330  0.60395471  1  0.001349  0  -0.08584  -0.064674  0  4.029423  0
C  C32  1  0.32675608  0.17831695  0.66420657  1  0.033442  0  -0.104948  -0.199089  0  4.016961  0
C  C33  1  0.49277318  0.22390566  0.76908171  1  0.278699  0  0.097206  0.20568  0  4.033428  0
N  N34  1  0.48827879  0.16666569  0.83333141  1  -1.202972  0  -0.245625  -0.145488  0  3.616574  0
O  O35  1  0.71151942  0.62159660  0.60918568  1  -1.257071  0  -0.236993  -0.604239  0  2.353437  0
O  O36  1  0.71150318  0.48757655  0.37839688  1  -1.265011  0  -0.237004  -0.604277  0  2.353054  0
O  O37  1  0.71150214  0.39081781  0.51241463  1  -1.257797  0  -0.237027  -0.604301  0  2.353407  0
O  O38  1  0.23862595  0.63025397  0.52890004  1  -1.256837  0  -0.228286  -0.602798  0  2.353502  0
O  O39  1  0.23863078  0.47109926  0.60135519  1  -1.261704  0  -0.228297  -0.602828  0  2.353606  0
O  O40  1  0.23862576  0.39864116  0.36974695  1  -1.260613  0  -0.228356  -0.602909  0  2.353548  0
O  O41  1  0.86124305  0.80814460  0.52017325  1  -1.161286  0  -0.366564  -0.455926  0  2.24421  0
O  O42  1  0.86124171  0.21201851  0.19184620  1  -1.146133  0  -0.366564  -0.455914  0  2.24437  0
O  O43  1  0.86124040  0.47982108  0.78796724  1  -1.155599  0  -0.366549  -0.455957  0  2.244188  0
