# generated using pymatgen
data_CdH13C18N3O4
_symmetry_space_group_name_H-M   'P 1'
_cell_length_a   13.91744261
_cell_length_b   13.91740402
_cell_length_c   14.26990932
_cell_angle_alpha   90.00016155
_cell_angle_beta   89.99980251
_cell_angle_gamma   117.20555069
_symmetry_Int_Tables_number   1
_chemical_formula_structural   CdH13C18N3O4
_chemical_formula_sum   'Cd4 H52 C72 N12 O16'
_cell_volume   2458.22925172
_cell_formula_units_Z   4
loop_
 _symmetry_equiv_pos_site_id
 _symmetry_equiv_pos_as_xyz
  1  'x, y, z'
loop_
 _atom_site_type_symbol
 _atom_site_label
 _atom_site_symmetry_multiplicity
 _atom_site_fract_x
 _atom_site_fract_y
 _atom_site_fract_z
 _atom_site_occupancy
 _atom_site_pbe_bader_charge
 _atom_site_pbe_bader_spin_density
 _atom_site_pbe_cm5_charge
 _atom_site_pbe_ddec_charge
 _atom_site_pbe_ddec_spin_density
 _atom_site_pbe_ddec_sum_bond_order
 _atom_site_pbe_magmom
Cd  Cd0  1  0.32493252  0.62747328  0.63437295  1  1.283593  0  0.777952  0.895896  0  2.214496  0
Cd  Cd1  1  0.67506610  0.37252831  0.13437304  1  1.283632  0  0.777884  0.895743  0  2.214585  0
Cd  Cd2  1  0.37252713  0.67506555  0.36562631  1  1.283642  0  0.777931  0.895839  0  2.214553  0
Cd  Cd3  1  0.62747170  0.32493324  0.86562508  1  1.283613  0  0.777932  0.895891  0  2.214464  0
H  H4  1  0.60413557  0.45739180  0.62999171  1  0.14101  0  0.111317  0.133204  0  1.04954  0
H  H5  1  0.39586386  0.54261017  0.12999320  1  0.140941  0  0.111322  0.133226  0  1.049491  0
H  H6  1  0.54260899  0.39586318  0.37000759  1  0.140952  0  0.111322  0.133185  0  1.049532  0
H  H7  1  0.45739305  0.60413784  0.87000909  1  0.140975  0  0.111332  0.133212  0  1.049508  0
H  H8  1  0.28418263  0.16207313  0.62755524  1  0.071871  0  0.114642  0.11117  0  0.969935  0
H  H9  1  0.71581602  0.83792703  0.12755507  1  0.071858  0  0.114628  0.111142  0  0.969934  0
H  H10  1  0.83792495  0.71581467  0.37244834  1  0.071877  0  0.114624  0.11114  0  0.969988  0
H  H11  1  0.16207544  0.28418702  0.87244575  1  0.071868  0  0.114611  0.111103  0  0.969973  0
H  H12  1  0.00014383  0.47970543  0.80651174  1  0.073046  0  0.09731  0.104156  0  1.049867  0
H  H13  1  0.99985601  0.52029150  0.30650905  1  0.073017  0  0.097358  0.104208  0  1.049826  0
H  H14  1  0.52029327  0.99985449  0.19349087  1  0.073031  0  0.097345  0.104194  0  1.049821  0
H  H15  1  0.47971254  0.00014491  0.69348784  1  0.073089  0  0.097294  0.104156  0  1.049804  0
H  H16  1  0.95051883  0.46051896  0.10568366  1  0.121977  0  0.102233  0.129886  0  1.032156  0
H  H17  1  0.04948069  0.53948226  0.60568145  1  0.122041  0  0.102203  0.129829  0  1.03219  0
H  H18  1  0.53948076  0.04947924  0.89431879  1  0.121838  0  0.102205  0.129849  0  1.032248  0
H  H19  1  0.46052289  0.95051902  0.39431558  1  0.121823  0  0.102219  0.129872  0  1.032164  0
H  H20  1  0.27268176  0.58172855  0.99122598  1  0.076358  0  0.097929  0.10594  0  1.040691  0
H  H21  1  0.72731835  0.41827049  0.49122672  1  0.076356  0  0.097912  0.105933  0  1.040719  0
H  H22  1  0.41827363  0.72731703  0.00877400  1  0.076505  0  0.097926  0.10595  0  1.040693  0
H  H23  1  0.58172212  0.27268213  0.50877138  1  0.076516  0  0.097904  0.105906  0  1.040661  0
H  H24  1  0.77321597  0.62837693  0.62722710  1  0.120214  0  0.110297  0.108732  0  0.997439  0
H  H25  1  0.22678263  0.37162679  0.12722729  1  0.120125  0  0.110283  0.108736  0  0.997372  0
H  H26  1  0.37162646  0.22678276  0.37277150  1  0.12013  0  0.110293  0.108739  0  0.997391  0
H  H27  1  0.62837559  0.77321756  0.87277150  1  0.120152  0  0.110301  0.108752  0  0.997367  0
H  H28  1  0.46377438  0.32303148  0.63068132  1  0.140804  0  0.108477  0.121886  0  1.056267  0
H  H29  1  0.53622345  0.67696902  0.13068201  1  0.140789  0  0.10853  0.121972  0  1.056304  0
H  H30  1  0.67696683  0.53622199  0.36932290  1  0.140764  0  0.108512  0.121973  0  1.056279  0
H  H31  1  0.32303442  0.46377794  0.86932167  1  0.140765  0  0.108501  0.121946  0  1.056331  0
H  H32  1  0.57889946  0.79817453  0.62704475  1  0.121353  0  0.120671  0.091696  0  0.990319  0
H  H33  1  0.42109594  0.20182554  0.12704453  1  0.121554  0  0.120664  0.091675  0  0.990353  0
H  H34  1  0.20182703  0.42109808  0.37295426  1  0.121551  0  0.120673  0.091677  0  0.990333  0
H  H35  1  0.79817338  0.57890290  0.87295525  1  0.121535  0  0.120651  0.091642  0  0.990379  0
H  H36  1  0.13954886  0.37919254  0.62330628  1  0.112597  0  0.124372  0.09987  0  0.976269  0
H  H37  1  0.86044741  0.62080504  0.12330643  1  0.11263  0  0.124377  0.099886  0  0.97633  0
H  H38  1  0.62080507  0.86044791  0.37669209  1  0.112617  0  0.124366  0.099871  0  0.976316  0
H  H39  1  0.37919292  0.13955122  0.87669118  1  0.11289  0  0.124365  0.099875  0  0.976312  0
H  H40  1  0.76238480  0.80575635  0.62462398  1  0.085913  0  0.11065  0.112349  0  0.983104  0
H  H41  1  0.23761057  0.19424585  0.12462154  1  0.08593  0  0.110656  0.112403  0  0.983078  0
H  H42  1  0.19424521  0.23761110  0.37537660  1  0.08589  0  0.110619  0.112396  0  0.983077  0
H  H43  1  0.80575683  0.76238922  0.87537807  1  0.085888  0  0.110616  0.112355  0  0.983091  0
H  H44  1  0.11611994  0.18846667  0.62440838  1  0.060932  0  0.110774  0.112551  0  0.985877  0
H  H45  1  0.88387795  0.81153096  0.12440687  1  0.060981  0  0.110763  0.112542  0  0.985896  0
H  H46  1  0.81153004  0.88387729  0.37559229  1  0.061001  0  0.110775  0.112595  0  0.985883  0
H  H47  1  0.18846792  0.11612327  0.87559125  1  0.060998  0  0.110768  0.11257  0  0.985901  0
H  H48  1  0.23980910  0.58409143  0.15720532  1  0.486134  0  0.284567  0.298345  0  1.009968  0
H  H49  1  0.76018947  0.41590878  0.65720600  1  0.486123  0  0.284541  0.298329  0  1.009943  0
H  H50  1  0.41591031  0.76018912  0.84279267  1  0.486121  0  0.284527  0.298291  0  1.009998  0
H  H51  1  0.58408778  0.23980925  0.34279060  1  0.48607  0  0.284535  0.29831  0  1.009979  0
H  H52  1  0.11496841  0.53198863  0.20398361  1  0.429105  0  0.292603  0.293655  0  0.977666  0
H  H53  1  0.88503245  0.46801350  0.70398401  1  0.429112  0  0.292602  0.293671  0  0.977666  0
H  H54  1  0.46801514  0.88503252  0.79601670  1  0.429126  0  0.292629  0.293685  0  0.977643  0
H  H55  1  0.53198470  0.11496653  0.29601446  1  0.429057  0  0.292634  0.293706  0  0.977679  0
C  C56  1  0.60056292  0.53391681  0.62760007  1  -0.003172  0  -0.078029  -0.151584  0  3.88989  0
C  C57  1  0.39943571  0.46608477  0.12760064  1  -0.003169  0  -0.07801  -0.151512  0  3.889723  0
C  C58  1  0.46608415  0.39943426  0.37240017  1  -0.003181  0  -0.077984  -0.151431  0  3.889778  0
C  C59  1  0.53391709  0.60056567  0.87240141  1  -0.003177  0  -0.077953  -0.15139  0  3.889805  0
C  C60  1  0.28956616  0.24276198  0.62702065  1  -0.030219  0  -0.065214  -0.025946  0  3.982792  0
C  C61  1  0.71043251  0.75723747  0.12702028  1  -0.030217  0  -0.06522  -0.025878  0  3.982911  0
C  C62  1  0.75723560  0.71042945  0.37298245  1  -0.029789  0  -0.065129  -0.025773  0  3.982744  0
C  C63  1  0.24276479  0.28957224  0.87298171  1  -0.029796  0  -0.065156  -0.025772  0  3.982708  0
C  C64  1  0.21671015  0.57176555  0.80757948  1  1.508617  0  0.19541  0.564567  0  4.20682  0
C  C65  1  0.78328968  0.42823209  0.30757866  1  1.508658  0  0.195382  0.564513  0  4.2069  0
C  C66  1  0.42823487  0.78328833  0.19241924  1  1.508603  0  0.195411  0.564655  0  4.206677  0
C  C67  1  0.57176769  0.21671098  0.69241930  1  1.508653  0  0.1953  0.564361  0  4.207057  0
C  C68  1  0.03216092  0.49118331  0.87727459  1  0.075096  0  -0.105703  -0.160176  0  4.002107  0
C  C69  1  0.96783791  0.50881336  0.37727337  1  0.075087  0  -0.105672  -0.160203  0  4.002024  0
C  C70  1  0.50881520  0.96783766  0.12272655  1  0.075186  0  -0.105683  -0.160119  0  4.001937  0
C  C71  1  0.49119079  0.03216305  0.62272427  1  0.07515  0  -0.105734  -0.160273  0  4.002195  0
C  C72  1  0.14369118  0.53544911  0.89093117  1  -0.117696  0  -0.031252  -0.028279  0  4.057256  0
C  C73  1  0.85630758  0.46454972  0.39093231  1  -0.117557  0  -0.031231  -0.028167  0  4.057184  0
C  C74  1  0.46455196  0.85630638  0.10906766  1  -0.117658  0  -0.031244  -0.028305  0  4.057223  0
C  C75  1  0.53545164  0.14369318  0.60906484  1  -0.11763  0  -0.031145  -0.028062  0  4.057296  0
C  C76  1  0.00523143  0.47974270  0.04592526  1  -0.074839  0  -0.099282  -0.215419  0  3.886382  0
C  C77  1  0.99476829  0.52025628  0.54592403  1  -0.074909  0  -0.099261  -0.215285  0  3.886437  0
C  C78  1  0.52025639  0.99476783  0.95407523  1  -0.074696  0  -0.099248  -0.215288  0  3.886465  0
C  C79  1  0.47974789  0.00523091  0.45407357  1  -0.074662  0  -0.099329  -0.215416  0  3.886387  0
C  C80  1  0.50115525  0.53674878  0.62756450  1  0.459275  0  0.119796  0.166612  0  3.979769  0
C  C81  1  0.49884258  0.46325242  0.12756333  1  0.45938  0  0.119768  0.166504  0  3.979881  0
C  C82  1  0.46325118  0.49884235  0.37243815  1  0.459539  0  0.119793  0.16653  0  3.979799  0
C  C83  1  0.53675086  0.50115868  0.87243841  1  0.459575  0  0.119732  0.166456  0  3.979818  0
C  C84  1  0.11728155  0.51963303  0.06062879  1  0.415965  0  0.090569  0.301884  0  4.104066  0
C  C85  1  0.88271894  0.48036564  0.56062573  1  0.415947  0  0.090583  0.30185  0  4.104089  0
C  C86  1  0.48036759  0.88271832  0.93937358  1  0.415958  0  0.090546  0.301858  0  4.104146  0
C  C87  1  0.51963347  0.11728101  0.43937139  1  0.415806  0  0.090586  0.301943  0  4.103966  0
C  C88  1  0.18561271  0.54778844  0.98159953  1  -0.054874  0  -0.101487  -0.214795  0  3.921733  0
C  C89  1  0.81438582  0.45220911  0.48159937  1  -0.055038  0  -0.101524  -0.214846  0  3.921783  0
C  C90  1  0.45221146  0.81438488  0.01839991  1  -0.054937  0  -0.10151  -0.214845  0  3.921826  0
C  C91  1  0.54778833  0.18561405  0.51839717  1  -0.054941  0  -0.101515  -0.214846  0  3.921754  0
C  C92  1  0.69588602  0.63071293  0.62654397  1  -0.034542  0  -0.063427  -0.015552  0  3.958372  0
C  C93  1  0.30411017  0.36928894  0.12654390  1  -0.034597  0  -0.063422  -0.015571  0  3.958132  0
C  C94  1  0.36928854  0.30411030  0.37345627  1  -0.034651  0  -0.063393  -0.015515  0  3.958155  0
C  C95  1  0.63071270  0.69588892  0.87345744  1  -0.034619  0  -0.063448  -0.015603  0  3.958279  0
C  C96  1  0.39058334  0.33296294  0.62811452  1  -0.011942  0  -0.077596  -0.148724  0  3.909631  0
C  C97  1  0.60941450  0.66703756  0.12811353  1  -0.012002  0  -0.077656  -0.148855  0  3.909708  0
C  C98  1  0.66703505  0.60941248  0.37188856  1  -0.012202  0  -0.077658  -0.148828  0  3.909763  0
C  C99  1  0.33296455  0.39058812  0.87188849  1  -0.01224  0  -0.077653  -0.148801  0  3.909761  0
C  C100  1  0.39622652  0.43622222  0.62726391  1  0.504373  0  0.122484  0.167889  0  3.977649  0
C  C101  1  0.60377052  0.56377717  0.12726336  1  0.504347  0  0.122476  0.167892  0  3.977632  0
C  C102  1  0.56377810  0.60377050  0.37273806  1  0.504636  0  0.122449  0.167838  0  3.977716  0
C  C103  1  0.43622152  0.39622868  0.87273907  1  0.504691  0  0.122497  0.167837  0  3.977554  0
C  C104  1  0.58835243  0.72459725  0.62668794  1  0.473699  0  0.053606  0.108011  0  3.962881  0
C  C105  1  0.41164377  0.27540390  0.12668655  1  0.473672  0  0.053514  0.107919  0  3.962751  0
C  C106  1  0.27540339  0.41164456  0.37331292  1  0.473627  0  0.053506  0.107968  0  3.962635  0
C  C107  1  0.72459786  0.58835466  0.87331418  1  0.473598  0  0.05354  0.10803  0  3.962717  0
C  C108  1  0.20871513  0.36214902  0.62456053  1  0.486366  0  0.054211  0.102267  0  3.957201  0
C  C109  1  0.79128273  0.63785076  0.12456026  1  0.486329  0  0.054158  0.102143  0  3.95737  0
C  C110  1  0.63784901  0.79128156  0.37543968  1  0.486325  0  0.054157  0.102226  0  3.957402  0
C  C111  1  0.36214979  0.20871724  0.87544042  1  0.486022  0  0.05414  0.102196  0  3.95737  0
C  C112  1  0.69000025  0.72809728  0.62563171  1  -0.064487  0  -0.082947  -0.135218  0  3.993017  0
C  C113  1  0.30999513  0.27190421  0.12562994  1  -0.064338  0  -0.082865  -0.135215  0  3.992728  0
C  C114  1  0.27190559  0.30999678  0.37436955  1  -0.064428  0  -0.08288  -0.13532  0  3.992795  0
C  C115  1  0.72809647  0.69000211  0.87437038  1  -0.064255  0  -0.082839  -0.135214  0  3.992846  0
C  C116  1  0.84474454  0.42212875  0.93856294  1  1.550482  0  0.202818  0.58212  0  4.197953  0
C  C117  1  0.15525564  0.57787447  0.43855833  1  1.550192  0  0.202798  0.582147  0  4.19775  0
C  C118  1  0.57787609  0.15525766  0.06144112  1  1.549924  0  0.202795  0.582153  0  4.197785  0
C  C119  1  0.42212844  0.84474292  0.56143920  1  1.550421  0  0.202839  0.582237  0  4.197904  0
C  C120  1  0.96337497  0.46433153  0.95482499  1  -0.005263  0  -0.029757  -0.02552  0  4.046781  0
C  C121  1  0.03662441  0.53566849  0.45482417  1  -0.005221  0  -0.029799  -0.025641  0  4.046781  0
C  C122  1  0.53566907  0.03662387  0.04517603  1  -0.005268  0  -0.029809  -0.025718  0  4.046773  0
C  C123  1  0.46433716  0.96337529  0.54517359  1  -0.005239  0  -0.029685  -0.025542  0  4.046836  0
C  C124  1  0.19661859  0.25702499  0.62515957  1  -0.005958  0  -0.085077  -0.14248  0  4.006539  0
C  C125  1  0.80337926  0.74297478  0.12515884  1  -0.00598  0  -0.085064  -0.14249  0  4.006654  0
C  C126  1  0.74297285  0.80337900  0.37484106  1  -0.005923  0  -0.085119  -0.142674  0  4.006583  0
C  C127  1  0.25702673  0.19662161  0.87484142  1  -0.005892  0  -0.085091  -0.142616  0  4.00655  0
N  N128  1  0.16035074  0.52882332  0.14949685  1  -1.25379  0  -0.605189  -0.630659  0  3.311271  0
N  N129  1  0.83965030  0.47117659  0.64949531  1  -1.253716  0  -0.605163  -0.630674  0  3.311158  0
N  N130  1  0.47117855  0.83964978  0.85050401  1  -1.253767  0  -0.605161  -0.630625  0  3.311236  0
N  N131  1  0.52882113  0.16034936  0.35050191  1  -1.253645  0  -0.605184  -0.630704  0  3.311223  0
N  N132  1  0.49674605  0.63162450  0.62753030  1  -1.214085  0  -0.321296  -0.278022  0  3.503867  0
N  N133  1  0.50325016  0.36837595  0.12752955  1  -1.214146  0  -0.321234  -0.277919  0  3.503875  0
N  N134  1  0.36837630  0.50325270  0.37247126  1  -1.214047  0  -0.321251  -0.277964  0  3.503817  0
N  N135  1  0.63162654  0.49674870  0.87247048  1  -1.214107  0  -0.321233  -0.277974  0  3.503862  0
N  N136  1  0.30586628  0.44874457  0.62553176  1  -1.223175  0  -0.319815  -0.265246  0  3.489985  0
N  N137  1  0.69413077  0.55125482  0.12553157  1  -1.223051  0  -0.319737  -0.265068  0  3.490022  0
N  N138  1  0.55125375  0.69413114  0.37446842  1  -1.223081  0  -0.319785  -0.265174  0  3.490062  0
N  N139  1  0.44874587  0.30586803  0.87446984  1  -1.223068  0  -0.319765  -0.265146  0  3.490032  0
O  O140  1  0.31895257  0.61139326  0.81866353  1  -1.189958  0  -0.331419  -0.588566  0  2.235153  0
O  O141  1  0.68104637  0.38860688  0.31866365  1  -1.189974  0  -0.331376  -0.588509  0  2.235216  0
O  O142  1  0.38860853  0.68104538  0.18133500  1  -1.190015  0  -0.331426  -0.588592  0  2.235182  0
O  O143  1  0.61139405  0.31895463  0.68133381  1  -1.190003  0  -0.331377  -0.588484  0  2.235243  0
O  O144  1  0.17348396  0.56138188  0.72671778  1  -1.156311  0  -0.330603  -0.54571  0  2.230998  0
O  O145  1  0.82651607  0.43861706  0.22671614  1  -1.156358  0  -0.330638  -0.54574  0  2.230976  0
O  O146  1  0.43861802  0.82651368  0.27328314  1  -1.156247  0  -0.330582  -0.545742  0  2.230885  0
O  O147  1  0.56138354  0.17348324  0.77328172  1  -1.156276  0  -0.330573  -0.545661  0  2.23096  0
O  O148  1  0.78514115  0.42745144  0.00374141  1  -1.208189  0  -0.343325  -0.596246  0  2.362822  0
O  O149  1  0.21486413  0.57256296  0.50373873  1  -1.208281  0  -0.343369  -0.596293  0  2.362721  0
O  O150  1  0.57256536  0.21486595  0.99626145  1  -1.208309  0  -0.343365  -0.596288  0  2.362783  0
O  O151  1  0.42744612  0.78513413  0.49626140  1  -1.208164  0  -0.343352  -0.596278  0  2.362753  0
O  O152  1  0.80812792  0.38531936  0.85673272  1  -1.150757  0  -0.331247  -0.544502  0  2.214411  0
O  O153  1  0.19187009  0.61468117  0.35672668  1  -1.150653  0  -0.331197  -0.544445  0  2.214306  0
O  O154  1  0.61468158  0.19186984  0.14327344  1  -1.150351  0  -0.331176  -0.544422  0  2.214341  0
O  O155  1  0.38531945  0.80813220  0.64327084  1  -1.15075  0  -0.331254  -0.544564  0  2.214467  0
