# generated using pymatgen
data_Tb2Cu3H30C24(NO4)6
_symmetry_space_group_name_H-M   'P 1'
_cell_length_a   13.38952720
_cell_length_b   13.38952744
_cell_length_c   14.39960465
_cell_angle_alpha   90.00009643
_cell_angle_beta   89.99984571
_cell_angle_gamma   120.00013753
_symmetry_Int_Tables_number   1
_chemical_formula_structural   Tb2Cu3H30C24(NO4)6
_chemical_formula_sum   'Tb4 Cu6 H60 C48 N12 O48'
_cell_volume   2235.68745371
_cell_formula_units_Z   2
loop_
 _symmetry_equiv_pos_site_id
 _symmetry_equiv_pos_as_xyz
  1  'x, y, z'
loop_
 _atom_site_type_symbol
 _atom_site_label
 _atom_site_symmetry_multiplicity
 _atom_site_fract_x
 _atom_site_fract_y
 _atom_site_fract_z
 _atom_site_occupancy
 _atom_site_pbe_bader_charge
 _atom_site_pbe_bader_spin_density
 _atom_site_pbe_cm5_charge
 _atom_site_pbe_ddec_charge
 _atom_site_pbe_ddec_spin_density
 _atom_site_pbe_ddec_sum_bond_order
 _atom_site_pbe_magmom
Tb  Tb0  1  0.66666663  0.33333323  0.16846864  1  2.191862  0.002574  1.503158  2.091828  0.003467  2.161688  0.005
Tb  Tb1  1  0.33333361  0.66666606  0.33153351  1  2.191885  0.002573  1.50318  2.09179  0.003467  2.1617  0.005
Tb  Tb2  1  0.33333370  0.66666693  0.83153196  1  2.191842  0.002574  1.50319  2.091792  0.003467  2.161729  0.005
Tb  Tb3  1  0.66666671  0.33333410  0.66846639  1  2.191894  0.002573  1.503185  2.091836  0.003467  2.16162  0.005
Cu  Cu4  1  0.00000064  0.50000053  0.99999937  1  1.052953  0.579143  0.744777  0.76835  0.735482  2.206916  0.578
Cu  Cu5  1  0.50000030  0.50000014  0.99999944  1  1.050777  0.579139  0.744756  0.768308  0.735481  2.206989  0.578
Cu  Cu6  1  0.50000041  0.00000036  0.00000007  1  1.049369  0.579095  0.74477  0.768322  0.73548  2.206928  0.578
Cu  Cu7  1  0.50000018  0.00000005  0.50000060  1  1.052982  0.579145  0.744732  0.768268  0.735484  2.20712  0.578
Cu  Cu8  1  0.49999979  0.49999971  0.49999960  1  1.050757  0.579141  0.74476  0.768277  0.735485  2.207151  0.578
Cu  Cu9  1  0.00000012  0.50000009  0.50000023  1  1.049498  0.5791  0.744741  0.768292  0.735484  2.2071  0.578
H  H10  1  0.03700644  0.67682207  0.91692149  1  0.494609  -0.000183  0.290583  0.25329  4.5e-05  1.016392  0.0
H  H11  1  0.32317738  0.36018398  0.91692158  1  0.499307  -0.000202  0.290592  0.253339  4.5e-05  1.016344  0.0
H  H12  1  0.63981544  0.96299329  0.91692165  1  0.498584  -0.000223  0.290571  0.253285  4.5e-05  1.016331  0.0
H  H13  1  0.67682270  0.03700769  0.58307839  1  0.494567  -0.000183  0.290589  0.25335  4.5e-05  1.016434  0.0
H  H14  1  0.36018397  0.32317627  0.58307831  1  0.499568  -0.000201  0.290595  0.253337  4.5e-05  1.016388  0.0
H  H15  1  0.96299168  0.63981443  0.58307850  1  0.498556  -0.000223  0.290602  0.253368  4.5e-05  1.016389  0.0
H  H16  1  0.96299314  0.32317734  0.08307841  1  0.494609  -0.000183  0.290567  0.253271  4.5e-05  1.016395  0.0
H  H17  1  0.67682294  0.63981618  0.08307832  1  0.499305  -0.000202  0.29057  0.253284  4.5e-05  1.016322  0.0
H  H18  1  0.36018371  0.03700655  0.08307825  1  0.49858  -0.000223  0.290568  0.253276  4.5e-05  1.016343  0.0
H  H19  1  0.32317687  0.96299172  0.41692152  1  0.494564  -0.000183  0.290586  0.253356  4.5e-05  1.016433  0.0
H  H20  1  0.63981518  0.67682358  0.41692159  1  0.499644  -0.000203  0.290586  0.253323  4.5e-05  1.01641  0.0
H  H21  1  0.03700790  0.36018498  0.41692140  1  0.498558  -0.000223  0.290587  0.25334  4.5e-05  1.016402  0.0
H  H22  1  0.91652202  0.60435697  0.79463295  1  0.109588  0.001827  0.121219  0.129166  0.00094  0.965584  0.001
H  H23  1  0.39564208  0.31216395  0.79463337  1  0.090498  0.001863  0.121219  0.129173  0.000939  0.965573  0.001
H  H24  1  0.68783501  0.08347750  0.79463283  1  0.099497  0.001856  0.121217  0.129169  0.000939  0.965576  0.001
H  H25  1  0.60435832  0.91652225  0.70536724  1  0.109558  0.001827  0.121204  0.129142  0.00094  0.965595  0.001
H  H26  1  0.31216337  0.39564126  0.70536651  1  0.090595  0.001863  0.121214  0.129157  0.000939  0.965581  0.001
H  H27  1  0.08347755  0.68783654  0.70536772  1  0.099531  0.001856  0.121202  0.129132  0.00094  0.965578  0.001
H  H28  1  0.08347830  0.39564319  0.20536695  1  0.109586  0.001827  0.121218  0.129173  0.000939  0.965574  0.001
H  H29  1  0.60435825  0.68783621  0.20536653  1  0.090489  0.001863  0.121217  0.129169  0.000939  0.965577  0.001
H  H30  1  0.31216413  0.91652234  0.20536708  1  0.099495  0.001856  0.121213  0.12916  0.000939  0.965572  0.001
H  H31  1  0.39564201  0.08347790  0.29463266  1  0.109568  0.001827  0.121202  0.129127  0.00094  0.965589  0.001
H  H32  1  0.68783652  0.60435933  0.29463340  1  0.090585  0.001863  0.121209  0.129147  0.00094  0.965577  0.001
H  H33  1  0.91652160  0.31216330  0.29463288  1  0.099472  0.001856  0.121211  0.129145  0.00094  0.965567  0.001
H  H34  1  0.79643713  0.53787320  0.86801701  1  0.115621  0.000379  0.124501  0.134888  0.000194  0.997587  0.0
H  H35  1  0.46212611  0.25856457  0.86801651  1  0.124918  0.000373  0.124492  0.134881  0.000194  0.997517  0.0
H  H36  1  0.74143547  0.20356232  0.86801681  1  0.137994  0.000365  0.124499  0.134889  0.000194  0.997544  0.0
H  H37  1  0.53787227  0.79643681  0.63198397  1  0.11562  0.000379  0.124497  0.134883  0.000194  0.997578  0.0
H  H38  1  0.25856395  0.46212697  0.63198475  1  0.124943  0.000373  0.124493  0.134881  0.000194  0.997488  0.0
H  H39  1  0.20356256  0.74143547  0.63198434  1  0.137978  0.000365  0.124489  0.134869  0.000194  0.997535  0.0
H  H40  1  0.20356277  0.46212739  0.13198359  1  0.115636  0.000379  0.124492  0.134892  0.000194  0.997538  0.0
H  H41  1  0.53787379  0.74143602  0.13198339  1  0.124913  0.000373  0.124487  0.134869  0.000194  0.997523  0.0
H  H42  1  0.25856485  0.79643783  0.13198378  1  0.137987  0.000365  0.124488  0.134886  0.000194  0.997543  0.0
H  H43  1  0.46212806  0.20356335  0.36801593  1  0.115626  0.000379  0.124484  0.134861  0.000194  0.997529  0.0
H  H44  1  0.74143638  0.53787318  0.36801585  1  0.124934  0.000373  0.124491  0.134869  0.000194  0.9975  0.0
H  H45  1  0.79643701  0.25856394  0.36801556  1  0.137978  0.000365  0.124495  0.134866  0.000194  0.997537  0.0
H  H46  1  0.86309198  0.69493085  0.97403246  1  0.061343  0.006075  0.109631  0.10448  0.0031  0.976334  0.004
H  H47  1  0.30506922  0.16816026  0.97403274  1  0.026952  0.006176  0.109638  0.104504  0.003099  0.976325  0.004
H  H48  1  0.83183988  0.13690925  0.97403275  1  0.064881  0.006071  0.109635  0.104497  0.0031  0.976344  0.004
H  H49  1  0.69493197  0.86309284  0.52596980  1  0.061988  0.006073  0.109625  0.104499  0.0031  0.976313  0.004
H  H50  1  0.16816030  0.30506816  0.52596864  1  0.026956  0.006175  0.10964  0.104504  0.003099  0.976319  0.004
H  H51  1  0.13690725  0.83183936  0.52596978  1  0.064869  0.006071  0.109621  0.104502  0.0031  0.97631  0.004
H  H52  1  0.13690835  0.30506931  0.02596745  1  0.061345  0.006075  0.10963  0.104454  0.0031  0.976337  0.004
H  H53  1  0.69493111  0.83183990  0.02596716  1  0.026956  0.006176  0.109627  0.104463  0.0031  0.976359  0.004
H  H54  1  0.16816045  0.86309091  0.02596715  1  0.064882  0.006071  0.10963  0.104487  0.0031  0.97635  0.004
H  H55  1  0.30506761  0.13690657  0.47403010  1  0.061982  0.006073  0.109627  0.104492  0.0031  0.97629  0.004
H  H56  1  0.83183884  0.69493168  0.47403127  1  0.026963  0.006176  0.109618  0.104463  0.0031  0.976361  0.004
H  H57  1  0.86309233  0.16816006  0.47403012  1  0.06486  0.006071  0.109623  0.104516  0.0031  0.976289  0.004
H  H58  1  0.97236133  0.71305188  0.05415638  1  0.104193  0.000255  0.120475  0.122267  2.8e-05  0.969923  0.0
H  H59  1  0.28694869  0.25930916  0.05415689  1  0.088863  0.000257  0.120478  0.122289  2.8e-05  0.969901  0.0
H  H60  1  0.74068989  0.02763901  0.05415614  1  0.097389  0.000258  0.120464  0.122276  2.8e-05  0.969859  0.0
H  H61  1  0.71305202  0.97236224  0.44584475  1  0.107011  0.000254  0.120488  0.122279  2.8e-05  0.969926  0.0
H  H62  1  0.25930974  0.28694918  0.44584547  1  0.08889  0.000257  0.120497  0.122296  2.8e-05  0.969922  0.0
H  H63  1  0.02763839  0.74069005  0.44584473  1  0.096925  0.000258  0.12048  0.12228  2.8e-05  0.969846  0.0
H  H64  1  0.02763782  0.28694797  0.94584352  1  0.104148  0.000255  0.120471  0.122251  2.8e-05  0.969931  0.0
H  H65  1  0.71305164  0.74069100  0.94584302  1  0.08886  0.000257  0.120485  0.122301  2.8e-05  0.969872  0.0
H  H66  1  0.25930969  0.97236041  0.94584376  1  0.097385  0.000258  0.120485  0.12229  2.8e-05  0.969915  0.0
H  H67  1  0.28694787  0.02763835  0.55415515  1  0.107016  0.000253  0.120498  0.122283  2.8e-05  0.96989  0.0
H  H68  1  0.74069059  0.71305098  0.55415512  1  0.088889  0.000257  0.120494  0.122298  2.8e-05  0.969913  0.0
H  H69  1  0.97236075  0.25930979  0.55415517  1  0.096925  0.000258  0.120471  0.122263  2.8e-05  0.969887  0.0
C  C70  1  0.87216989  0.43440381  0.83925840  1  1.590589  0.001123  0.233339  0.663093  0.000926  4.094418  0.001
C  C71  1  0.56559644  0.43776652  0.83925809  1  1.582351  0.001117  0.233339  0.663091  0.000927  4.094448  0.001
C  C72  1  0.56223410  0.12782963  0.83925786  1  1.589277  0.001133  0.233338  0.663095  0.000926  4.09438  0.001
C  C73  1  0.43440348  0.87217189  0.66074050  1  1.590639  0.001123  0.233319  0.663052  0.000927  4.094328  0.001
C  C74  1  0.43776716  0.56559598  0.66074026  1  1.582807  0.001117  0.233339  0.663127  0.000926  4.094213  0.001
C  C75  1  0.12782759  0.56223183  0.66074134  1  1.589268  0.001134  0.233293  0.66306  0.000927  4.094407  0.001
C  C76  1  0.12783044  0.56559635  0.16074150  1  1.590573  0.001122  0.233368  0.663154  0.000926  4.094342  0.001
C  C77  1  0.43440388  0.56223364  0.16074181  1  1.582351  0.001117  0.233327  0.663052  0.000927  4.094373  0.001
C  C78  1  0.43776623  0.87217053  0.16074205  1  1.589281  0.001133  0.233348  0.663089  0.000927  4.09437  0.001
C  C79  1  0.56559641  0.12782870  0.33925940  1  1.590637  0.001123  0.233359  0.663114  0.000927  4.0943  0.001
C  C80  1  0.56223198  0.43440386  0.33925965  1  1.582816  0.001117  0.233308  0.663041  0.000927  4.094268  0.001
C  C81  1  0.87217273  0.43776833  0.33925926  1  1.589269  0.001134  0.23334  0.663023  0.000927  4.094431  0.001
C  C82  1  0.88382927  0.55164393  0.85787357  1  0.21846  0.001515  -0.06636  -0.204432  0.000904  3.858281  -0.001
C  C83  1  0.44835622  0.33218584  0.85787325  1  0.238874  0.001473  -0.066352  -0.204396  0.000904  3.85819  -0.001
C  C84  1  0.66781369  0.11616988  0.85787281  1  0.222076  0.001479  -0.066351  -0.204419  0.000904  3.858232  -0.001
C  C85  1  0.55164416  0.88382925  0.64212735  1  0.218727  0.001514  -0.066359  -0.20439  0.000904  3.858214  -0.001
C  C86  1  0.33218608  0.44835622  0.64212729  1  0.238486  0.001474  -0.066321  -0.204359  0.000904  3.858204  -0.001
C  C87  1  0.11617043  0.66781486  0.64212773  1  0.22204  0.001479  -0.066311  -0.204276  0.000904  3.858143  -0.001
C  C88  1  0.11617063  0.44835666  0.14212633  1  0.218473  0.001515  -0.066362  -0.204471  0.000904  3.858227  -0.001
C  C89  1  0.55164410  0.66781432  0.14212665  1  0.238886  0.001473  -0.066345  -0.204388  0.000904  3.858185  -0.001
C  C90  1  0.33218589  0.88382953  0.14212709  1  0.222077  0.001479  -0.066337  -0.204386  0.000904  3.858191  -0.001
C  C91  1  0.44835659  0.11617048  0.35787324  1  0.218731  0.001514  -0.066346  -0.204323  0.000904  3.858167  -0.001
C  C92  1  0.66781500  0.55164469  0.35787262  1  0.238494  0.001474  -0.066297  -0.204293  0.000904  3.858126  -0.001
C  C93  1  0.88382990  0.33218530  0.35787287  1  0.222108  0.001479  -0.0663  -0.204247  0.000904  3.858122  -0.001
C  C94  1  0.81601539  0.55392820  0.06884922  1  1.601638  0.002278  0.207849  0.623822  0.001295  4.174189  0.002
C  C95  1  0.44607090  0.26208695  0.06884876  1  1.593443  0.002286  0.207893  0.623939  0.001295  4.174117  0.002
C  C96  1  0.73791239  0.18398459  0.06884833  1  1.589453  0.002289  0.207896  0.623945  0.001295  4.174054  0.002
C  C97  1  0.55393029  0.81601738  0.43115553  1  1.601786  0.002278  0.207982  0.624017  0.001295  4.173893  0.002
C  C98  1  0.26209193  0.44607148  0.43115769  1  1.593824  0.002285  0.207932  0.623943  0.001294  4.173907  0.002
C  C99  1  0.18398314  0.73791343  0.43115524  1  1.589832  0.002289  0.207948  0.623961  0.001295  4.174031  0.002
C  C100  1  0.18398419  0.44607121  0.93115068  1  1.601632  0.002278  0.207853  0.623869  0.001295  4.174162  0.002
C  C101  1  0.55392750  0.73791215  0.93115114  1  1.593458  0.002286  0.207865  0.62388  0.001295  4.174138  0.002
C  C102  1  0.26208676  0.81601525  0.93115157  1  1.589325  0.002289  0.207871  0.623912  0.001295  4.174111  0.002
C  C103  1  0.44606886  0.18398246  0.56884506  1  1.601791  0.002278  0.207876  0.623788  0.001294  4.174093  0.002
C  C104  1  0.73790839  0.55392867  0.56884221  1  1.593816  0.002285  0.207927  0.623962  0.001294  4.173843  0.002
C  C105  1  0.81601719  0.26208673  0.56884327  1  1.589735  0.002289  0.207945  0.623989  0.001295  4.173967  0.002
C  C106  1  0.90481370  0.65107866  0.00746000  1  0.231202  0.000525  -0.067827  -0.177439  0.000322  3.894747  -0.002
C  C107  1  0.34892150  0.25373433  0.00745969  1  0.290062  0.000418  -0.067824  -0.177501  0.000322  3.894756  -0.002
C  C108  1  0.74626490  0.09518702  0.00745907  1  0.241169  0.000512  -0.067815  -0.1775  0.000322  3.894723  -0.002
C  C109  1  0.65107844  0.90481338  0.49254119  1  0.227717  0.000528  -0.067825  -0.177485  0.000321  3.894803  -0.002
C  C110  1  0.25373528  0.34892151  0.49254126  1  0.289603  0.000419  -0.067845  -0.177475  0.000321  3.894855  -0.002
C  C111  1  0.09518711  0.74626576  0.49254176  1  0.241952  0.000511  -0.067782  -0.177439  0.000321  3.894707  -0.002
C  C112  1  0.09518620  0.34892193  0.99254060  1  0.231245  0.000525  -0.06782  -0.177417  0.000322  3.894746  -0.002
C  C113  1  0.65107808  0.74626508  0.99254021  1  0.290075  0.000418  -0.067822  -0.177454  0.000321  3.894724  -0.002
C  C114  1  0.25373500  0.90481357  0.99254083  1  0.241324  0.000511  -0.067819  -0.177497  0.000322  3.894793  -0.002
C  C115  1  0.34892145  0.09518721  0.50745871  1  0.227707  0.000527  -0.067789  -0.177363  0.000321  3.894713  -0.002
C  C116  1  0.74626430  0.65107790  0.50745865  1  0.289601  0.000419  -0.067833  -0.177456  0.000321  3.89486  -0.002
C  C117  1  0.90481440  0.25373472  0.50745744  1  0.242013  0.000511  -0.067806  -0.177462  0.000321  3.894786  -0.002
N  N118  1  0.95754668  0.61026446  0.93899242  1  -1.065182  0.096164  -0.497577  -0.280479  0.061587  3.556757  0.08
N  N119  1  0.38973498  0.34728184  0.93899223  1  -1.078825  0.096202  -0.497612  -0.280567  0.061587  3.556794  0.08
N  N120  1  0.65271838  0.04245372  0.93899236  1  -1.080663  0.09625  -0.497578  -0.280467  0.061586  3.556719  0.08
N  N121  1  0.61026596  0.95754707  0.56100914  1  -1.065418  0.09617  -0.497611  -0.280602  0.06159  3.556893  0.08
N  N122  1  0.34728185  0.38973389  0.56100972  1  -1.079131  0.096204  -0.497641  -0.280628  0.061589  3.556929  0.08
N  N123  1  0.04245243  0.65271857  0.56100961  1  -1.080874  0.096256  -0.497636  -0.280664  0.061591  3.556919  0.08
N  N124  1  0.04245365  0.38973570  0.06100748  1  -1.065186  0.096164  -0.497551  -0.280421  0.061587  3.556731  0.08
N  N125  1  0.61026491  0.65271875  0.06100767  1  -1.078826  0.096202  -0.497571  -0.280485  0.061587  3.556678  0.08
N  N126  1  0.34728195  0.95754644  0.06100824  1  -1.080654  0.09625  -0.497564  -0.280447  0.061586  3.556717  0.08
N  N127  1  0.38973436  0.04245309  0.43899076  1  -1.065413  0.096169  -0.497621  -0.280657  0.06159  3.556898  0.08
N  N128  1  0.65271847  0.61026627  0.43899019  1  -1.07921  0.096209  -0.497619  -0.280589  0.061591  3.556944  0.08
N  N129  1  0.95754715  0.34728084  0.43899029  1  -1.080899  0.096254  -0.497603  -0.280626  0.061589  3.556991  0.08
O  O130  1  0.80885496  0.45514742  0.06202119  1  -1.182693  -0.000981  -0.399342  -0.67387  -0.001485  2.335359  0.0
O  O131  1  0.54485302  0.35370777  0.06202074  1  -1.185508  -0.000988  -0.399352  -0.673917  -0.001485  2.335347  0.0
O  O132  1  0.64629265  0.19114561  0.06202049  1  -1.179182  -0.000979  -0.399382  -0.673941  -0.001485  2.335353  0.0
O  O133  1  0.45514565  0.80885481  0.43798084  1  -1.182708  -0.000981  -0.399421  -0.673958  -0.001485  2.33527  0.0
O  O134  1  0.35371338  0.54485595  0.43798076  1  -1.185563  -0.000988  -0.399375  -0.673924  -0.001485  2.335321  0.0
O  O135  1  0.19114556  0.64629079  0.43798104  1  -1.179463  -0.000979  -0.399425  -0.673968  -0.001485  2.335321  0.0
O  O136  1  0.19114537  0.54485274  0.93797872  1  -1.182678  -0.000981  -0.399341  -0.673879  -0.001485  2.335363  0.0
O  O137  1  0.45514656  0.64629165  0.93797916  1  -1.185526  -0.000988  -0.399378  -0.673906  -0.001485  2.335343  0.0
O  O138  1  0.35370767  0.80885455  0.93797941  1  -1.179172  -0.000978  -0.399358  -0.673901  -0.001485  2.335343  0.0
O  O139  1  0.54485468  0.19114534  0.56201906  1  -1.182696  -0.000981  -0.39941  -0.67391  -0.001485  2.335283  0.0
O  O140  1  0.64628695  0.45514421  0.56201914  1  -1.185557  -0.000988  -0.399368  -0.673932  -0.001485  2.335315  0.0
O  O141  1  0.80885520  0.35370894  0.56201817  1  -1.179468  -0.000979  -0.399415  -0.673961  -0.001485  2.335317  0.0
O  O142  1  0.92065212  0.39692566  0.89451469  1  -1.121416  0.086195  -0.316888  -0.514268  0.054565  2.28093  0.078
O  O143  1  0.60307384  0.52372758  0.89451380  1  -1.116857  0.086196  -0.316879  -0.514245  0.054564  2.280993  0.078
O  O144  1  0.47627307  0.07934644  0.89451291  1  -1.125171  0.086183  -0.316861  -0.514224  0.054565  2.280953  0.078
O  O145  1  0.39692912  0.92065792  0.60548560  1  -1.121446  0.086187  -0.316873  -0.51422  0.05456  2.280952  0.078
O  O146  1  0.52372958  0.60307215  0.60548380  1  -1.116923  0.086198  -0.31685  -0.514197  0.054566  2.280793  0.078
O  O147  1  0.07934199  0.47627184  0.60548634  1  -1.125268  0.086175  -0.316856  -0.514212  0.054561  2.281015  0.078
O  O148  1  0.07934702  0.60307418  0.10548521  1  -1.121405  0.086196  -0.316905  -0.514298  0.054565  2.280927  0.078
O  O149  1  0.39692648  0.47627258  0.10548680  1  -1.116853  0.086195  -0.316874  -0.514237  0.054564  2.280961  0.078
O  O150  1  0.52372726  0.92065372  0.10548699  1  -1.125181  0.086182  -0.316875  -0.514239  0.054564  2.28098  0.078
O  O151  1  0.60307269  0.07934373  0.39451639  1  -1.121443  0.086196  -0.316861  -0.514244  0.054565  2.280863  0.078
O  O152  1  0.47627106  0.39692919  0.39451471  1  -1.116908  0.086188  -0.316863  -0.514182  0.05456  2.280925  0.078
O  O153  1  0.92065790  0.52372875  0.39451356  1  -1.125283  0.086175  -0.316888  -0.514218  0.05456  2.281015  0.078
O  O154  1  0.75558303  0.57454423  0.12429042  1  -1.204946  0.001326  -0.322084  -0.593049  0.000575  2.172424  0.001
O  O155  1  0.42545637  0.18103965  0.12428983  1  -1.203026  0.001325  -0.322106  -0.593088  0.000575  2.172438  0.001
O  O156  1  0.81896054  0.24441739  0.12429077  1  -1.203579  0.00133  -0.322072  -0.593075  0.000575  2.17237  0.001
O  O157  1  0.57454543  0.75558155  0.37571088  1  -1.205061  0.001326  -0.322082  -0.593059  0.000574  2.172251  0.001
O  O158  1  0.18103614  0.42545363  0.37571181  1  -1.202851  0.001324  -0.322078  -0.593052  0.000574  2.172081  0.001
O  O159  1  0.24441867  0.81896345  0.37571065  1  -1.203751  0.00133  -0.322073  -0.593061  0.000575  2.17232  0.001
O  O160  1  0.24441612  0.42545562  0.87570949  1  -1.204944  0.001326  -0.322079  -0.593073  0.000575  2.172426  0.001
O  O161  1  0.57454320  0.81895976  0.87570938  1  -1.203023  0.001325  -0.322053  -0.593046  0.000575  2.172416  0.001
O  O162  1  0.18103978  0.75558276  0.87570982  1  -1.203605  0.00133  -0.322086  -0.593082  0.000575  2.172428  0.001
O  O163  1  0.42545490  0.24441861  0.62428902  1  -1.205072  0.001325  -0.322037  -0.592979  0.000574  2.172307  0.001
O  O164  1  0.81896376  0.57454696  0.62428809  1  -1.202845  0.001325  -0.322084  -0.593086  0.000574  2.172063  0.001
O  O165  1  0.75558154  0.18103832  0.62428717  1  -1.203698  0.00133  -0.32207  -0.593086  0.000575  2.172246  0.001
O  O166  1  0.81351906  0.37705336  0.77017945  1  -1.208641  0.013072  -0.41099  -0.668942  0.008109  2.333262  0.011
O  O167  1  0.62294631  0.43646512  0.77017904  1  -1.208234  0.013074  -0.410994  -0.668958  0.008109  2.333268  0.011
O  O168  1  0.56353415  0.18648110  0.77017892  1  -1.207245  0.013076  -0.411013  -0.668992  0.00811  2.333251  0.011
O  O169  1  0.37705115  0.81351832  0.72981812  1  -1.208661  0.013071  -0.410961  -0.668878  0.008109  2.333263  0.011
O  O170  1  0.43646632  0.62294814  0.72981720  1  -1.208568  0.013073  -0.411009  -0.668992  0.008109  2.333276  0.011
O  O171  1  0.18648124  0.56353405  0.72981886  1  -1.207157  0.013074  -0.41097  -0.668956  0.008109  2.333249  0.011
O  O172  1  0.18648126  0.62294679  0.22982115  1  -1.208647  0.013072  -0.411  -0.668972  0.008109  2.333246  0.011
O  O173  1  0.37705283  0.56353472  0.22982086  1  -1.208236  0.013074  -0.410972  -0.668901  0.00811  2.333203  0.011
O  O174  1  0.43646500  0.81351874  0.22982098  1  -1.207241  0.013076  -0.411019  -0.668991  0.00811  2.333195  0.011
O  O175  1  0.62294843  0.18648109  0.27018317  1  -1.208659  0.013072  -0.410981  -0.668923  0.008109  2.333312  0.011
O  O176  1  0.56353443  0.37705159  0.27018201  1  -1.208576  0.013073  -0.410995  -0.668983  0.008109  2.333265  0.011
O  O177  1  0.81351865  0.43646654  0.27018174  1  -1.207144  0.013075  -0.411  -0.668948  0.00811  2.333322  0.011
