# generated using pymatgen
data_Ni3H12C8(N3O7)2
_symmetry_space_group_name_H-M   'P 1'
_cell_length_a   11.86719507
_cell_length_b   11.87317211
_cell_length_c   16.21663325
_cell_angle_alpha   89.99573117
_cell_angle_beta   89.99649536
_cell_angle_gamma   119.99907311
_symmetry_Int_Tables_number   1
_chemical_formula_structural   Ni3H12C8(N3O7)2
_chemical_formula_sum   'Ni9 H36 C24 N18 O42'
_cell_volume   1978.83791574
_cell_formula_units_Z   3
loop_
 _symmetry_equiv_pos_site_id
 _symmetry_equiv_pos_as_xyz
  1  'x, y, z'
loop_
 _atom_site_type_symbol
 _atom_site_label
 _atom_site_symmetry_multiplicity
 _atom_site_fract_x
 _atom_site_fract_y
 _atom_site_fract_z
 _atom_site_occupancy
 _atom_site_pbe_bader_charge
 _atom_site_pbe_bader_spin_density
 _atom_site_pbe_cm5_charge
 _atom_site_pbe_ddec_charge
 _atom_site_pbe_ddec_spin_density
 _atom_site_pbe_ddec_sum_bond_order
 _atom_site_pbe_magmom
Ni  Ni0  1  0.60603843  0.60605364  0.99988957  1  1.188572  -1.515048  0.691104  0.773535  -1.728669  2.665583  -1.498
Ni  Ni1  1  0.39382814  0.00024772  0.33324039  1  1.193774  1.540247  0.690929  0.775252  1.724237  2.658733  1.524
Ni  Ni2  1  0.00001798  0.39395327  0.66674912  1  1.191229  -1.521069  0.69083  0.773954  -1.735382  2.663573  -1.505
Ni  Ni3  1  0.52583533  0.02916030  0.13445679  1  1.193746  1.601779  0.654801  0.853382  1.792688  2.357588  1.588
Ni  Ni4  1  0.97065767  0.49689982  0.46766480  1  1.193701  1.58837  0.653647  0.848321  1.777955  2.362601  1.575
Ni  Ni5  1  0.50328436  0.47375609  0.80094049  1  1.189056  1.588146  0.652553  0.847873  1.777327  2.360875  1.575
Ni  Ni6  1  0.49680967  0.97078090  0.53236457  1  1.194322  -1.588137  0.653678  0.848899  -1.812065  2.362659  -1.575
Ni  Ni7  1  0.47353416  0.50325958  0.19897878  1  1.190376  1.593804  0.654047  0.849661  1.784029  2.36054  1.581
Ni  Ni8  1  0.02952704  0.52625472  0.86571896  1  1.18916  1.588307  0.652522  0.847833  1.777505  2.361003  1.575
H  H9  1  0.59854511  0.05226148  0.98208486  1  0.660175  -0.000174  0.286985  0.388256  0.000371  0.952336  0.0
H  H10  1  0.94738211  0.54590025  0.31545421  1  0.664911  0.000404  0.287175  0.388477  0.000904  0.951811  0.0
H  H11  1  0.45383896  0.40079870  0.64863207  1  0.65806  -0.000199  0.286988  0.388309  0.000302  0.952038  0.0
H  H12  1  0.54596484  0.94742768  0.68457572  1  0.665884  -0.000407  0.287117  0.388544  -0.000879  0.951821  0.0
H  H13  1  0.40075726  0.45405222  0.35111259  1  0.66175  0.00046  0.287229  0.388387  0.000914  0.951796  0.0
H  H14  1  0.05295356  0.59914475  0.01806208  1  0.65742  -0.000186  0.287043  0.388502  0.000345  0.951774  0.0
H  H15  1  0.56077828  0.16694248  0.00615374  1  0.635853  0.000151  0.292839  0.388488  0.000614  0.943824  0.0
H  H16  1  0.83246838  0.39371737  0.33954978  1  0.666778  -0.00019  0.292477  0.388015  0.000317  0.944846  0.0
H  H17  1  0.60629591  0.43877517  0.67259376  1  0.631781  0.000113  0.292684  0.388146  0.000591  0.944518  0.0
H  H18  1  0.39368997  0.83257390  0.66052178  1  0.666948  0.000222  0.292537  0.38823  -0.00029  0.944522  0.0
H  H19  1  0.43922479  0.60652862  0.32717104  1  0.633467  3.5e-05  0.292492  0.388047  0.000513  0.945059  0.0
H  H20  1  0.16740972  0.56113803  0.99412320  1  0.647092  7.5e-05  0.292739  0.388199  0.000582  0.94435  0.0
H  H21  1  0.70847317  0.17398702  0.24656266  1  0.66607  0.000426  0.293109  0.387957  0.000698  0.948216  0.001
H  H22  1  0.82633762  0.53514560  0.58007133  1  0.645053  0.000261  0.293024  0.387872  0.000549  0.948588  0.0
H  H23  1  0.46509727  0.29106314  0.91317246  1  0.666732  0.000234  0.293164  0.388201  0.000554  0.948128  0.0
H  H24  1  0.53574331  0.82646727  0.42006380  1  0.660943  -0.000318  0.292891  0.387958  -0.000596  0.948654  -0.001
H  H25  1  0.29106797  0.46499981  0.08659745  1  0.663946  0.000236  0.292949  0.387423  0.000558  0.949153  0.0
H  H26  1  0.17413604  0.70891320  0.75355183  1  0.664055  0.000232  0.293259  0.388267  0.000527  0.948014  0.0
H  H27  1  0.28473319  0.83615772  0.07085178  1  0.621252  0.001584  0.323317  0.412426  0.001198  0.870155  0.001
H  H28  1  0.16333764  0.44787344  0.40393174  1  0.61851  0.001573  0.322949  0.411711  0.001212  0.871466  0.001
H  H29  1  0.55197059  0.71526583  0.73711995  1  0.620415  0.000604  0.32306  0.412055  0.000492  0.871029  0.001
H  H30  1  0.44742271  0.16319330  0.59609572  1  0.617755  -0.00056  0.32297  0.411957  -0.000515  0.871042  -0.001
H  H31  1  0.71515625  0.55164365  0.26269922  1  0.62048  0.001635  0.323406  0.412402  0.001217  0.870187  0.001
H  H32  1  0.83648132  0.28460537  0.92936498  1  0.620865  0.001636  0.323303  0.412384  0.001208  0.870124  0.001
H  H33  1  0.76887125  0.11057363  0.18879087  1  0.620767  0.000827  0.329811  0.405303  0.000755  0.866133  0.0
H  H34  1  0.88961184  0.65887226  0.52223271  1  0.575198  0.000801  0.329688  0.404815  0.000723  0.867199  0.0
H  H35  1  0.34149789  0.23042798  0.85517038  1  0.580979  0.001039  0.329644  0.404955  0.00076  0.866586  0.0
H  H36  1  0.65907533  0.88976080  0.47831802  1  0.575856  -0.000799  0.329441  0.404828  -0.000749  0.86722  0.0
H  H37  1  0.23046340  0.34157844  0.14473630  1  0.581179  0.001012  0.329783  0.404719  0.000748  0.867243  0.0
H  H38  1  0.11090803  0.76941786  0.81138789  1  0.617301  0.000844  0.329506  0.404899  0.000759  0.866323  0.0
H  H39  1  0.26815626  0.88817077  0.15754135  1  0.664311  0.000513  0.294151  0.397427  0.00074  0.929969  0.0
H  H40  1  0.11121314  0.37945612  0.49063156  1  0.667757  0.000164  0.293998  0.397067  0.000394  0.93016  0.0
H  H41  1  0.62031179  0.73168871  0.82385669  1  0.67018  0.000174  0.294064  0.39733  0.000387  0.929956  0.0
H  H42  1  0.37922849  0.11126419  0.50931986  1  0.666801  -0.000177  0.293883  0.398059  -0.000397  0.929226  0.0
H  H43  1  0.73148668  0.62012952  0.17599774  1  0.672314  0.000157  0.294158  0.397208  0.000387  0.929993  0.0
H  H44  1  0.88846813  0.26833267  0.84261629  1  0.664267  0.000171  0.293908  0.397711  0.00039  0.929796  0.0
C  C45  1  0.51900187  0.79116180  0.17763257  1  0.988423  0.001641  0.209885  0.160456  0.001552  3.980555  0.002
C  C46  1  0.20896147  0.72742835  0.51112045  1  0.968113  -0.006187  0.208958  0.158948  -0.00408  3.980236  -0.005
C  C47  1  0.27261575  0.48125697  0.84428921  1  0.967846  -0.008798  0.209468  0.15966  -0.004948  3.982182  -0.006
C  C48  1  0.72735755  0.20907320  0.48890382  1  0.970598  0.006314  0.209109  0.159287  0.004044  3.979961  0.005
C  C49  1  0.48078979  0.27257146  0.15554494  1  0.961251  -0.008059  0.209311  0.160805  -0.003866  3.981142  -0.003
C  C50  1  0.79138687  0.51877817  0.82237747  1  0.990627  -0.008764  0.209332  0.159415  -0.00491  3.981386  -0.006
C  C51  1  0.57684903  0.81650789  0.05107966  1  0.964517  0.004233  0.215289  0.181412  0.003217  3.977786  0.004
C  C52  1  0.18370667  0.76020708  0.38462099  1  0.973591  -0.007593  0.215389  0.181156  -0.004081  3.977696  -0.004
C  C53  1  0.23966025  0.42292706  0.71785901  1  0.971598  0.004134  0.215449  0.18161  0.003187  3.978368  0.004
C  C54  1  0.76024500  0.18372129  0.61537084  1  0.974855  0.007722  0.215495  0.18166  0.004035  3.9776  0.005
C  C55  1  0.42275931  0.23969401  0.28204010  1  0.969409  -0.00461  0.215085  0.181583  -0.001717  3.979244  0.0
C  C56  1  0.81671289  0.57704906  0.94882943  1  0.964477  0.004116  0.215587  0.181567  0.003193  3.978148  0.004
C  C57  1  0.49171315  0.82860637  0.25917621  1  1.592099  -1.9e-05  0.232605  0.55433  0.001276  4.19317  0.0
C  C58  1  0.17158344  0.66210746  0.59243649  1  1.594574  -0.002316  0.233068  0.554655  -0.001701  4.186391  -0.001
C  C59  1  0.33788943  0.50916371  0.92562015  1  1.581038  -0.003569  0.232704  0.553312  -0.002539  4.187403  -0.002
C  C60  1  0.66199101  0.17173944  0.40760212  1  1.593519  0.002589  0.233152  0.554559  0.001809  4.185454  0.002
C  C61  1  0.50905777  0.33792307  0.07422232  1  1.575893  -0.002987  0.232583  0.55261  -0.002205  4.18756  -0.001
C  C62  1  0.82879473  0.49091926  0.74103314  1  1.581081  -0.003547  0.232533  0.553083  -0.002543  4.187395  -0.002
C  C63  1  0.61908249  0.85496734  0.96351244  1  1.648719  0.002112  0.217563  0.533365  0.000283  4.244588  0.002
C  C64  1  0.14532142  0.76377636  0.29700369  1  1.64392  -0.001776  0.21784  0.533966  -0.000281  4.243944  -0.001
C  C65  1  0.23565786  0.38056368  0.63030817  1  1.638908  0.002109  0.217521  0.533312  0.000276  4.244083  0.002
C  C66  1  0.76392566  0.14529177  0.70296150  1  1.645047  0.001705  0.21703  0.532354  0.000207  4.246338  0.001
C  C67  1  0.38059117  0.23587512  0.36961851  1  1.639343  -0.001616  0.216862  0.532471  -0.000175  4.245755  -0.001
C  C68  1  0.85504672  0.61940413  0.03639204  1  1.647952  0.002134  0.217596  0.5336  0.000299  4.244122  0.002
N  N69  1  0.55757208  0.70060793  0.07598176  1  -0.704765  -0.052599  -0.252685  -0.193248  -0.033252  3.615578  -0.048
N  N70  1  0.29960750  0.85692000  0.40957224  1  -0.707163  0.062189  -0.252431  -0.194312  0.037926  3.612279  0.057
N  N71  1  0.14304132  0.44223336  0.74287262  1  -0.704137  -0.053776  -0.252611  -0.193858  -0.033892  3.616052  -0.05
N  N72  1  0.85693134  0.29963019  0.59042754  1  -0.708331  -0.061021  -0.253009  -0.194843  -0.038009  3.614598  -0.055
N  N73  1  0.44221563  0.14316736  0.25711973  1  -0.70647  0.061311  -0.253787  -0.195885  0.036905  3.613216  0.054
N  N74  1  0.70080285  0.55779185  0.92378974  1  -0.700714  -0.053168  -0.252828  -0.194017  -0.033541  3.616018  -0.049
N  N75  1  0.55199451  0.87605710  0.11343247  1  -1.207927  0.060015  -0.343658  -0.372596  0.035516  3.54417  0.053
N  N76  1  0.12415732  0.67558484  0.44690081  1  -1.18059  0.057772  -0.343797  -0.371621  0.034553  3.54793  0.051
N  N77  1  0.32438885  0.44809404  0.78005861  1  -1.186432  0.058885  -0.343938  -0.372004  0.034976  3.54596  0.052
N  N78  1  0.67556808  0.12423958  0.55310310  1  -1.185017  -0.0576  -0.343716  -0.37162  -0.035206  3.547825  -0.051
N  N79  1  0.44764589  0.32425327  0.21976969  1  -1.178236  0.061472  -0.344484  -0.37323  0.036469  3.547497  0.054
N  N80  1  0.87628548  0.55189697  0.88663030  1  -1.210111  0.059019  -0.344039  -0.371923  0.035011  3.54606  0.052
N  N81  1  0.52113355  0.68301875  0.15550449  1  -0.670228  0.054932  -0.219513  -0.154416  0.033114  3.439255  0.05
N  N82  1  0.31709502  0.83790962  0.48904570  1  -0.683084  -0.052637  -0.218552  -0.152676  -0.032445  3.437421  -0.049
N  N83  1  0.16220930  0.47901821  0.82231739  1  -0.672377  0.052604  -0.218953  -0.153296  0.031922  3.438365  0.048
N  N84  1  0.83785811  0.31718671  0.51097573  1  -0.681644  0.052764  -0.21856  -0.152621  0.031817  3.437158  0.049
N  N85  1  0.47881149  0.16229687  0.17751371  1  -0.671611  0.054554  -0.219638  -0.156124  0.032894  3.431562  0.048
N  N86  1  0.68321714  0.52104130  0.84434000  1  -0.671694  0.052658  -0.218878  -0.153359  0.031962  3.438285  0.048
O  O87  1  0.48114682  0.93130078  0.25480715  1  -1.123722  0.11537  -0.295876  -0.549515  0.066616  2.574926  0.107
O  O88  1  0.06852474  0.54875907  0.58773930  1  -1.121674  -0.002478  -0.294058  -0.545476  -0.002083  2.571799  -0.003
O  O89  1  0.45134884  0.51963374  0.92093448  1  -1.113016  -0.001965  -0.294097  -0.54502  -0.001783  2.573466  -0.002
O  O90  1  0.54857679  0.06874787  0.41231683  1  -1.121434  0.003338  -0.293894  -0.545084  0.001817  2.571671  0.003
O  O91  1  0.51957859  0.45136443  0.07885929  1  -1.1128  -0.002785  -0.293791  -0.544672  -0.002238  2.571925  -0.003
O  O92  1  0.93181434  0.48050413  0.74571396  1  -1.113631  -0.001912  -0.293991  -0.545202  -0.001703  2.573005  -0.002
O  O93  1  0.65092725  0.77734740  0.92790410  1  -1.128627  -0.080594  -0.301493  -0.536913  -0.046399  2.272823  -0.074
O  O94  1  0.22268935  0.87337727  0.26140465  1  -1.127572  0.081983  -0.302058  -0.537873  0.045981  2.274288  0.075
O  O95  1  0.12609453  0.34883489  0.59478561  1  -1.128782  -0.081158  -0.301869  -0.537226  -0.046713  2.273412  -0.074
O  O96  1  0.87353888  0.22273570  0.73855557  1  -1.126143  -0.080571  -0.301548  -0.536826  -0.046422  2.274542  -0.074
O  O97  1  0.34857600  0.12629761  0.40520358  1  -1.127205  0.082845  -0.301705  -0.536996  0.046661  2.272647  0.076
O  O98  1  0.77722716  0.65117170  0.07189535  1  -1.127728  -0.080941  -0.301862  -0.53721  -0.046611  2.272721  -0.074
O  O99  1  0.48433315  0.76768988  0.32426800  1  -1.17848  0.006517  -0.284599  -0.50623  0.003314  2.228397  0.006
O  O100  1  0.23272159  0.71464817  0.65760813  1  -1.178362  0.004709  -0.284168  -0.506318  0.002759  2.227792  0.004
O  O101  1  0.28511443  0.51746584  0.99077890  1  -1.17581  0.004871  -0.284142  -0.505702  0.002659  2.228141  0.004
O  O102  1  0.71459543  0.23283115  0.34242052  1  -1.177392  -0.003235  -0.284129  -0.506153  -0.002186  2.227094  -0.003
O  O103  1  0.51772105  0.28524003  0.00914223  1  -1.174526  0.004267  -0.284119  -0.505637  0.002334  2.226386  0.003
O  O104  1  0.76773041  0.48260131  0.67587755  1  -1.175893  0.004859  -0.284051  -0.505339  0.002667  2.228258  0.004
O  O105  1  0.71672004  0.15279236  0.18791710  1  -1.223845  0.06406  -0.559028  -0.728457  0.036251  2.072076  0.055
O  O106  1  0.84736050  0.56452723  0.52140005  1  -1.158374  0.063264  -0.559028  -0.728085  0.035891  2.071859  0.055
O  O107  1  0.43586518  0.28287792  0.85449284  1  -1.185625  0.062832  -0.559118  -0.72865  0.035718  2.071837  0.054
O  O108  1  0.56468825  0.84766887  0.47881336  1  -1.175315  -0.06329  -0.559108  -0.728667  -0.036654  2.072436  -0.055
O  O109  1  0.28276086  0.43590743  0.14533503  1  -1.182244  0.063396  -0.559038  -0.727456  0.036041  2.073757  0.055
O  O110  1  0.15306351  0.71721064  0.81220667  1  -1.219172  0.06303  -0.559153  -0.728614  0.035722  2.070956  0.054
O  O111  1  0.31769065  0.91463204  0.10426459  1  -1.229019  0.062147  -0.561747  -0.753122  0.035326  2.043816  0.054
O  O112  1  0.08479241  0.40244663  0.43734179  1  -1.230256  0.061323  -0.561183  -0.751656  0.034912  2.043003  0.053
O  O113  1  0.59740554  0.68224293  0.77059040  1  -1.234463  0.06038  -0.561555  -0.752677  0.034496  2.042792  0.053
O  O114  1  0.40214449  0.08476430  0.56260918  1  -1.228595  -0.060534  -0.561212  -0.753259  -0.035273  2.040365  -0.053
O  O115  1  0.68199273  0.59697568  0.22926392  1  -1.236465  0.061114  -0.561777  -0.752786  0.034838  2.042925  0.053
O  O116  1  0.91497667  0.31774487  0.89589976  1  -1.229014  0.060891  -0.561704  -0.753603  0.034745  2.040397  0.053
O  O117  1  0.60334170  0.11756963  0.02425653  1  -1.237005  0.079234  -0.57842  -0.766602  0.044386  2.137982  0.069
O  O118  1  0.88165998  0.48571660  0.35754128  1  -1.273273  0.078716  -0.57877  -0.766431  0.044093  2.135792  0.068
O  O119  1  0.51432667  0.39578356  0.69070370  1  -1.232317  0.076482  -0.57914  -0.767105  0.042889  2.135426  0.067
O  O120  1  0.48571116  0.88181690  0.64248257  1  -1.274512  -0.078044  -0.578831  -0.766921  -0.044671  2.136225  -0.068
O  O121  1  0.39550285  0.51448443  0.30915106  1  -1.236727  0.079908  -0.57891  -0.766465  0.044734  2.133833  0.069
O  O122  1  0.11845056  0.60411340  0.97599791  1  -1.246463  0.076917  -0.579227  -0.767276  0.043082  2.135434  0.067
O  O123  1  0.61896336  0.94999551  0.93066456  1  -1.142845  -0.006533  -0.29788  -0.486483  -0.003642  2.162945  -0.006
O  O124  1  0.05067024  0.66837224  0.26409898  1  -1.147677  0.007411  -0.298477  -0.48709  0.003834  2.162241  0.006
O  O125  1  0.33067680  0.38048557  0.59737073  1  -1.142034  -0.007079  -0.29799  -0.486631  -0.003962  2.162345  -0.006
O  O126  1  0.66859628  0.05053107  0.73587440  1  -1.149058  -0.006866  -0.298095  -0.486527  -0.003627  2.163388  -0.006
O  O127  1  0.38094256  0.33105425  0.40251978  1  -1.143288  0.009497  -0.297482  -0.486132  0.004981  2.162442  0.008
O  O128  1  0.95010331  0.61945469  0.06935298  1  -1.143531  -0.006689  -0.297868  -0.486689  -0.003741  2.162528  -0.006
