# generated using pymatgen
data_AlH12C21NO9
_symmetry_space_group_name_H-M   'P 1'
_cell_length_a   4.13220383
_cell_length_b   23.33033902
_cell_length_c   23.33061674
_cell_angle_alpha   119.99709945
_cell_angle_beta   89.99912942
_cell_angle_gamma   89.99993123
_symmetry_Int_Tables_number   1
_chemical_formula_structural   AlH12C21NO9
_chemical_formula_sum   'Al3 H36 C63 N3 O27'
_cell_volume   1947.92544051
_cell_formula_units_Z   3
loop_
 _symmetry_equiv_pos_site_id
 _symmetry_equiv_pos_as_xyz
  1  'x, y, z'
loop_
 _atom_site_type_symbol
 _atom_site_label
 _atom_site_symmetry_multiplicity
 _atom_site_fract_x
 _atom_site_fract_y
 _atom_site_fract_z
 _atom_site_occupancy
 _atom_site_pbe_bader_charge
 _atom_site_pbe_bader_spin_density
 _atom_site_pbe_cm5_charge
 _atom_site_pbe_ddec_charge
 _atom_site_pbe_ddec_spin_density
 _atom_site_pbe_ddec_sum_bond_order
 _atom_site_pbe_magmom
Al  Al0  1  0.00681778  0.99963920  0.49982070  1  2.507188  0  0.441622  1.614231  0  2.552726  0
Al  Al1  1  0.00684966  0.33349549  0.16646334  1  2.507132  0  0.44155  1.61376  0  2.553274  0
Al  Al2  1  0.00678077  0.66683364  0.83368919  1  2.507139  0  0.441536  1.613944  0  2.553135  0
H  H3  1  0.20041614  0.86907049  0.92035942  1  0.071501  0  0.109191  0.114935  0  0.975545  0
H  H4  1  0.20835078  0.97588972  0.92273434  1  0.087905  0  0.104789  0.115923  0  1.030146  0
H  H5  1  0.81376441  0.88929255  0.74876005  1  0.086181  0  0.109287  0.131101  0  1.024862  0
H  H6  1  0.81379385  0.02610483  0.94401452  1  0.085739  0  0.109277  0.131227  0  1.024617  0
H  H7  1  0.20049467  0.21792514  0.96424883  1  0.091534  0  0.109232  0.115073  0  0.975835  0
H  H8  1  0.20832607  0.11349040  0.85743186  1  0.057625  0  0.104777  0.115964  0  1.029976  0
H  H9  1  0.81379461  0.08456527  0.80720516  1  0.097884  0  0.109223  0.131003  0  1.024719  0
H  H10  1  0.20047501  0.91297638  0.61539388  1  0.067398  0  0.109211  0.114997  0  0.975698  0
H  H11  1  0.20832833  0.91059875  0.71983587  1  0.058318  0  0.104788  0.115973  0  1.030067  0
H  H12  1  0.80788519  0.42189253  0.37062350  1  0.080309  0  0.110564  0.117012  0  0.973242  0
H  H13  1  0.79824170  0.42320097  0.47688365  1  0.089202  0  0.104838  0.115725  0  1.030325  0
H  H14  1  0.19409168  0.24902034  0.38861068  1  0.082681  0  0.109483  0.132444  0  1.023333  0
H  H15  1  0.19405580  0.44472899  0.52707102  1  0.082721  0  0.109374  0.132312  0  1.023421  0
H  H16  1  0.80787736  0.46268063  0.71790607  1  0.076747  0  0.110609  0.117111  0  0.973222  0
H  H17  1  0.79825795  0.35643048  0.61295506  1  0.076964  0  0.104828  0.115703  0  1.030437  0
H  H18  1  0.19405881  0.30625952  0.58431116  1  0.084019  0  0.109438  0.132441  0  1.023274  0
H  H19  1  0.80788000  0.11542122  0.41144083  1  0.098224  0  0.110598  0.117094  0  0.973327  0
H  H20  1  0.79823823  0.22037134  0.41013022  1  0.078722  0  0.104842  0.115757  0  1.030338  0
H  H21  1  0.80788310  0.44895817  0.07820820  1  0.098395  0  0.10953  0.115339  0  0.975905  0
H  H22  1  0.79703617  0.55398583  0.07689892  1  0.074983  0  0.104713  0.115577  0  1.030842  0
H  H23  1  0.19260023  0.63957618  0.25100822  1  0.087161  0  0.108992  0.131698  0  1.023897  0
H  H24  1  0.19260163  0.58234276  0.05526598  1  0.079956  0  0.108961  0.131734  0  1.02369  0
H  H25  1  0.80786167  0.75513121  0.03740540  1  0.077996  0  0.109536  0.115272  0  0.975854  0
H  H26  1  0.79702269  0.75645447  0.14375016  1  0.089102  0  0.10471  0.115557  0  1.030791  0
H  H27  1  0.19259479  0.77809482  0.19375835  1  0.085934  0  0.109011  0.131717  0  1.023817  0
H  H28  1  0.80785869  0.79593628  0.38439413  1  0.076579  0  0.109538  0.115296  0  0.975813  0
H  H29  1  0.79701475  0.68959429  0.27937552  1  0.074191  0  0.104751  0.115573  0  1.030829  0
H  H30  1  0.98999254  0.75236788  0.76013368  1  0.637416  0  0.310751  0.351208  0  0.948309  0
H  H31  1  0.99009210  0.17439745  0.08093521  1  0.620382  0  0.310783  0.351365  0  0.948254  0
H  H32  1  0.99007501  0.07319185  0.65890887  1  0.661861  0  0.31077  0.351202  0  0.948473  0
H  H33  1  0.01980306  0.26158899  0.25247664  1  0.630468  0  0.310614  0.353606  0  0.947319  0
H  H34  1  0.01977859  0.58085051  0.67577499  1  0.632474  0  0.310606  0.353588  0  0.947513  0
H  H35  1  0.01978983  0.15755742  0.57174262  1  0.631812  0  0.310605  0.353684  0  0.947377  0
H  H36  1  0.02021160  0.49070900  0.23837161  1  0.630565  0  0.3102  0.35194  0  0.951084  0
H  H37  1  0.02018191  0.59496056  0.91902617  1  0.630049  0  0.310281  0.352066  0  0.950427  0
H  H38  1  0.02021003  0.91433405  0.34261120  1  0.634769  0  0.310259  0.352182  0  0.950949  0
C  C39  1  0.50451762  0.91032250  0.41251980  1  1.530478  0  0.286072  0.700966  0  4.021996  0
C  C40  1  0.50692940  0.00012905  0.58858229  1  1.544726  0  0.285596  0.700999  0  4.025421  0
C  C41  1  0.50484684  0.08739685  0.49787086  1  1.550783  0  0.28653  0.702981  0  4.024247  0
C  C42  1  0.50696955  0.24472965  0.07819928  1  1.543645  0  0.285425  0.700588  0  4.025478  0
C  C43  1  0.50454260  0.42080092  0.16444795  1  1.553149  0  0.286053  0.701032  0  4.022017  0
C  C44  1  0.50484398  0.33545538  0.25617738  1  1.545402  0  0.286506  0.702915  0  4.024593  0
C  C45  1  0.50686705  0.75510908  0.83319911  1  1.549006  0  0.285554  0.70113  0  4.025123  0
C  C46  1  0.50449681  0.66886312  0.92301648  1  1.554219  0  0.286134  0.701125  0  4.021841  0
C  C47  1  0.50481701  0.57713036  0.74593737  1  1.527416  0  0.286514  0.702933  0  4.024358  0
C  C48  1  0.34112953  0.87414712  0.88358094  1  -0.045642  0  -0.086575  -0.064802  0  4.031745  0
C  C49  1  0.33927066  0.93395307  0.88421281  1  -0.038415  0  -0.105126  -0.199845  0  4.016903  0
C  C50  1  0.50254883  0.93983752  0.83455460  1  0.334159  0  0.097633  0.206562  0  4.032484  0
C  C51  1  0.67849115  0.88572715  0.78675921  1  0.00155  0  -0.103381  -0.283846  0  3.940285  0
C  C52  1  0.69511204  0.82670667  0.78799573  1  0.531834  0  0.085064  0.316599  0  4.080411  0
C  C53  1  0.51507051  0.81989428  0.83541542  1  0.030855  0  -0.04283  -0.216807  0  4.02901  0
C  C54  1  0.67853880  0.06767176  0.94758249  1  0.080713  0  -0.103551  -0.284282  0  3.940601  0
C  C55  1  0.69519233  0.12792507  0.00659971  1  0.503246  0  0.08517  0.316603  0  4.080224  0
C  C56  1  0.51518857  0.18215909  0.01341757  1  0.021749  0  -0.042769  -0.216715  0  4.028885  0
C  C57  1  0.34116336  0.17607109  0.95916529  1  -0.090027  0  -0.086665  -0.064954  0  4.031989  0
C  C58  1  0.33928584  0.11690518  0.89936758  1  0.040495  0  -0.104999  -0.199769  0  4.016589  0
C  C59  1  0.50258178  0.06136088  0.89347855  1  0.270697  0  0.097727  0.206823  0  4.032703  0
C  C60  1  0.67852009  0.04656427  0.76564036  1  0.039824  0  -0.10329  -0.283609  0  3.940207  0
C  C61  1  0.69517481  0.04532975  0.70538392  1  0.515403  0  0.084906  0.316264  0  4.080616  0
C  C62  1  0.51515989  0.99791636  0.65115766  1  0.036154  0  -0.04277  -0.216706  0  4.02905  0
C  C63  1  0.34114858  0.94975097  0.65724727  1  -0.037103  0  -0.086692  -0.064895  0  4.031621  0
C  C64  1  0.33928263  0.94911692  0.71641912  1  0.013532  0  -0.105015  -0.199847  0  4.01666  0
C  C65  1  0.50257061  0.99876957  0.77195675  1  0.264279  0  0.097761  0.206737  0  4.032987  0
C  C66  1  0.66713461  0.38483103  0.37519896  1  -0.022042  0  -0.086065  -0.063771  0  4.027194  0
C  C67  1  0.66772980  0.38489212  0.43472147  1  -0.031253  0  -0.104791  -0.199853  0  4.015027  0
C  C68  1  0.50382694  0.33496982  0.44004602  1  0.332069  0  0.097928  0.207983  0  4.032365  0
C  C69  1  0.32905593  0.28736419  0.38559968  1  -0.016976  0  -0.10304  -0.285915  0  3.94148  0
C  C70  1  0.31377120  0.28909917  0.32681507  1  0.560059  0  0.085468  0.318075  0  4.077407  0
C  C71  1  0.49363169  0.33695511  0.32062686  1  -0.024779  0  -0.042616  -0.216683  0  4.024367  0
C  C72  1  0.32904251  0.44773229  0.56841956  1  0.011101  0  -0.103091  -0.285952  0  3.941121  0
C  C73  1  0.31375482  0.50651369  0.62894639  1  0.551043  0  0.085471  0.31808  0  4.07732  0
C  C74  1  0.49359839  0.51268669  0.68298075  1  -0.032284  0  -0.042533  -0.216581  0  4.024056  0
C  C75  1  0.66712861  0.45811068  0.67627774  1  -0.025153  0  -0.086194  -0.064003  0  4.027088  0
C  C76  1  0.66773402  0.39859494  0.61681271  1  0.02016  0  -0.104708  -0.199751  0  4.014844  0
C  C77  1  0.50382872  0.39327727  0.56157669  1  0.303248  0  0.09802  0.208132  0  4.032016  0
C  C78  1  0.32903705  0.26491130  0.54596925  1  0.000838  0  -0.10312  -0.286077  0  3.941041  0
C  C79  1  0.31376468  0.20438693  0.54423342  1  0.576857  0  0.085572  0.318178  0  4.077352  0
C  C80  1  0.49362500  0.15035500  0.49637244  1  -0.051241  0  -0.042636  -0.216664  0  4.024522  0
C  C81  1  0.66714218  0.15704742  0.44849672  1  -0.045137  0  -0.086108  -0.063891  0  4.027334  0
C  C82  1  0.66773482  0.21651486  0.44844016  1  -0.002893  0  -0.104815  -0.199938  0  4.014413  0
C  C83  1  0.50382715  0.27175589  0.49836052  1  0.306692  0  0.098064  0.208315  0  4.031615  0
C  C84  1  0.66659836  0.49054013  0.11518918  1  -0.050659  0  -0.087193  -0.066025  0  4.033562  0
C  C85  1  0.66669247  0.55000287  0.11515018  1  -0.000408  0  -0.105463  -0.199682  0  4.017529  0
C  C86  1  0.50221610  0.60513122  0.16505636  1  0.306565  0  0.098227  0.20765  0  4.033581  0
C  C87  1  0.32784224  0.59825468  0.21269104  1  -0.002708  0  -0.103634  -0.285824  0  3.941573  0
C  C88  1  0.31365646  0.53774908  0.21097844  1  0.573606  0  0.084689  0.317931  0  4.077594  0
C  C89  1  0.49362084  0.48380857  0.16306633  1  -0.049454  0  -0.042485  -0.216018  0  4.02696  0
C  C90  1  0.32784661  0.62065709  0.05225021  1  -0.018607  0  -0.103426  -0.285647  0  3.941457  0
C  C91  1  0.31363942  0.62236131  0.99345859  1  0.557691  0  0.084484  0.317691  0  4.077447  0
C  C92  1  0.49361365  0.67026731  0.98741149  1  -0.050147  0  -0.042411  -0.216105  0  4.026919  0
C  C93  1  0.66658352  0.71814812  0.04201474  1  -0.00098  0  -0.087218  -0.065972  0  4.033411  0
C  C94  1  0.66665357  0.71820192  0.10152055  1  -0.01794  0  -0.105383  -0.199542  0  4.017278  0
C  C95  1  0.50220137  0.66829574  0.10675184  1  0.325298  0  0.098021  0.207422  0  4.033586  0
C  C96  1  0.32781867  0.78110580  0.23508635  1  0.003891  0  -0.103646  -0.285696  0  3.941309  0
C  C97  1  0.31364177  0.83990077  0.29558419  1  0.545442  0  0.084639  0.317857  0  4.077732  0
C  C98  1  0.49360634  0.84593597  0.34952233  1  -0.015554  0  -0.042323  -0.215942  0  4.027219  0
C  C99  1  0.66657028  0.79132981  0.34280747  1  -0.039119  0  -0.087248  -0.065977  0  4.033486  0
C  C100  1  0.66664812  0.73182779  0.28335271  1  0.01211  0  -0.105511  -0.19962  0  4.017764  0
C  C101  1  0.50219589  0.72659502  0.22822039  1  0.314884  0  0.098032  0.20719  0  4.034109  0
N  N102  1  0.49364053  0.99998954  0.83333006  1  -1.175327  0  -0.247664  -0.149776  0  3.61478  0
N  N103  1  0.51125625  0.33333867  0.49999462  1  -1.185417  0  -0.24743  -0.150399  0  3.613158  0
N  N104  1  0.50891193  0.66667976  0.16668097  1  -1.188542  0  -0.249033  -0.150677  0  3.619395  0
O  O105  1  0.74753696  0.07814536  0.52680767  1  -1.254558  0  -0.230526  -0.608401  0  2.349284  0
O  O106  1  0.74617503  0.94869534  0.42148453  1  -1.252525  0  -0.22938  -0.602322  0  2.339642  0
O  O107  1  0.73997424  0.97305099  0.54810577  1  -1.267126  0  -0.23446  -0.605565  0  2.369952  0
O  O108  1  0.27391573  0.04639454  0.47077766  1  -1.261655  0  -0.236711  -0.608798  0  2.366404  0
O  O109  1  0.26662690  0.02949353  0.57922733  1  -1.257445  0  -0.231194  -0.6048  0  2.33666  0
O  O110  1  0.27388100  0.92366834  0.45347495  1  -1.248363  0  -0.235154  -0.601183  0  2.354019  0
O  O111  1  0.27391199  0.36254701  0.24226246  1  -1.257819  0  -0.236741  -0.608786  0  2.366692  0
O  O112  1  0.26668686  0.25409040  0.11692045  1  -1.259923  0  -0.231085  -0.604491  0  2.336655  0
O  O113  1  0.27393822  0.37984636  0.13683382  1  -1.255903  0  -0.235174  -0.60109  0  2.354313  0
O  O114  1  0.74752981  0.30651515  0.21798467  1  -1.25195  0  -0.230539  -0.608271  0  2.34917  0
O  O115  1  0.74622598  0.41182936  0.19384632  1  -1.253035  0  -0.229259  -0.602287  0  2.33964  0
O  O116  1  0.74003086  0.28520327  0.09159001  1  -1.263877  0  -0.23447  -0.605327  0  2.369652  0
O  O117  1  0.27390209  0.59103942  0.78694050  1  -1.255508  0  -0.236609  -0.608621  0  2.36642  0
O  O118  1  0.26658024  0.71638757  0.80383378  1  -1.263848  0  -0.230999  -0.604627  0  2.336725  0
O  O119  1  0.27384794  0.69646101  0.90966424  1  -1.252686  0  -0.235283  -0.601318  0  2.354136  0
O  O120  1  0.74752470  0.61531739  0.75518648  1  -1.252963  0  -0.23061  -0.608476  0  2.349475  0
O  O121  1  0.74613720  0.63944845  0.88463987  1  -1.25531  0  -0.229272  -0.602272  0  2.339435  0
O  O122  1  0.73993044  0.74170488  0.86027529  1  -1.264127  0  -0.234609  -0.605726  0  2.369794  0
O  O123  1  0.88235334  0.77693230  0.74130338  1  -1.16245  0  -0.363146  -0.449953  0  2.244235  0
O  O124  1  0.88246313  0.13100146  0.05637239  1  -1.141861  0  -0.363071  -0.44987  0  2.243819  0
O  O125  1  0.88243558  0.09202368  0.70230007  1  -1.185665  0  -0.363116  -0.449808  0  2.244229  0
O  O126  1  0.12818737  0.24241830  0.27664720  1  -1.153115  0  -0.363906  -0.453681  0  2.239754  0
O  O127  1  0.12816582  0.55668317  0.63243621  1  -1.155461  0  -0.363884  -0.453614  0  2.239995  0
O  O128  1  0.12818375  0.20089531  0.59091092  1  -1.157547  0  -0.363945  -0.45382  0  2.23996  0
O  O129  1  0.12867812  0.53407585  0.25766438  1  -1.157123  0  -0.366123  -0.456654  0  2.244727  0
O  O130  1  0.12866786  0.57567188  0.94310299  1  -1.154219  0  -0.366112  -0.456467  0  2.244095  0
O  O131  1  0.12866744  0.89025418  0.29924753  1  -1.160226  0  -0.366106  -0.456805  0  2.244663  0
