# generated using pymatgen
data_MnH15C12N2O5
_symmetry_space_group_name_H-M   'P 1'
_cell_length_a   7.02495925
_cell_length_b   21.64444523
_cell_length_c   21.64445219
_cell_angle_alpha   120.00018072
_cell_angle_beta   90.00004386
_cell_angle_gamma   90.00012322
_symmetry_Int_Tables_number   1
_chemical_formula_structural   MnH15C12N2O5
_chemical_formula_sum   'Mn6 H90 C72 N12 O30'
_cell_volume   2850.14337428
_cell_formula_units_Z   6
loop_
 _symmetry_equiv_pos_site_id
 _symmetry_equiv_pos_as_xyz
  1  'x, y, z'
loop_
 _atom_site_type_symbol
 _atom_site_label
 _atom_site_symmetry_multiplicity
 _atom_site_fract_x
 _atom_site_fract_y
 _atom_site_fract_z
 _atom_site_occupancy
 _atom_site_pbe_bader_charge
 _atom_site_pbe_bader_spin_density
 _atom_site_pbe_cm5_charge
 _atom_site_pbe_ddec_charge
 _atom_site_pbe_ddec_spin_density
 _atom_site_pbe_ddec_sum_bond_order
 _atom_site_pbe_magmom
Mn  Mn0  1  0.84844302  0.66435433  0.26933706  1  1.532813  4.50653  0.607405  1.041956  4.629197  2.344  4.444
Mn  Mn1  1  0.48489132  0.26933523  0.66435371  1  1.532832  4.506532  0.607374  1.041883  4.629196  2.344047  4.444
Mn  Mn2  1  0.51510765  0.73066248  0.39501735  1  1.532385  4.506587  0.607402  1.041922  4.629209  2.343986  4.444
Mn  Mn3  1  0.18177142  0.60498271  0.33564560  1  1.532331  4.506579  0.607418  1.041921  4.629201  2.343977  4.444
Mn  Mn4  1  0.15155288  0.33564371  0.60498163  1  1.532246  4.506586  0.607414  1.041945  4.629214  2.344013  4.444
Mn  Mn5  1  0.81822328  0.39501960  0.73066216  1  1.532376  4.506574  0.607356  1.041855  4.629215  2.34412  4.444
H  H6  1  0.00417510  0.42575953  0.00044528  1  0.038563  0.00058  0.094626  0.089481  0.000322  1.033123  0.0
H  H7  1  0.32915828  0.00044537  0.42575948  1  0.037847  0.000581  0.094632  0.089482  0.000322  1.033096  0.0
H  H8  1  0.67084329  0.99955325  0.42531104  1  0.065193  0.000561  0.094644  0.089471  0.000322  1.033108  0.0
H  H9  1  0.33751058  0.57468778  0.57424215  1  0.064073  0.000569  0.094634  0.089452  0.000322  1.033127  0.0
H  H10  1  0.99582472  0.57424161  0.57468894  1  0.063735  0.00057  0.094639  0.089478  0.000322  1.033115  0.0
H  H11  1  0.66249326  0.42531395  0.99955459  1  0.064906  0.000562  0.094636  0.089495  0.000322  1.033082  0.0
H  H12  1  0.85987864  0.49189570  0.12076100  1  0.071114  0.000381  0.099686  0.10918  -8.2e-05  1.025947  0.0
H  H13  1  0.47345141  0.12076205  0.49189589  1  0.071144  0.000381  0.099687  0.109204  -8.2e-05  1.025983  0.0
H  H14  1  0.52655017  0.87923640  0.37112986  1  0.056564  0.000385  0.09967  0.109196  -8.2e-05  1.025964  0.0
H  H15  1  0.19321519  0.62886674  0.50810526  1  0.070775  0.000384  0.09968  0.109207  -8.2e-05  1.025975  0.0
H  H16  1  0.14011711  0.50810447  0.62886832  1  0.070792  0.000384  0.099696  0.109225  -8.2e-05  1.025941  0.0
H  H17  1  0.80678274  0.37113271  0.87923718  1  0.056482  0.000385  0.099682  0.109193  -8.2e-05  1.025987  0.0
H  H18  1  0.54559361  0.52142787  0.09080534  1  0.083336  0.000523  0.09709  0.091426  -0.000134  1.057364  0.0
H  H19  1  0.78773787  0.09080429  0.52142703  1  0.083316  0.000523  0.097072  0.091396  -0.000134  1.057383  0.0
H  H20  1  0.21226097  0.90919700  0.43062585  1  0.082091  0.000525  0.097092  0.091427  -0.000134  1.057356  0.0
H  H21  1  0.87892997  0.56937614  0.47857296  1  0.080074  0.000524  0.097073  0.09141  -0.000134  1.057381  0.0
H  H22  1  0.45440347  0.47857222  0.56937550  1  0.080073  0.000524  0.097073  0.091404  -0.000134  1.05736  0.0
H  H23  1  0.12107224  0.43062363  0.90919605  1  0.082106  0.000525  0.097064  0.091393  -0.000134  1.05733  0.0
H  H24  1  0.21599745  0.90385354  0.27860756  1  0.046363  0.000758  0.097192  0.106271  0.000466  0.998924  0.0
H  H25  1  0.11734502  0.27860873  0.90385280  1  0.04638  0.000758  0.097155  0.106205  0.000466  0.998957  0.0
H  H26  1  0.88266305  0.72139114  0.62524507  1  0.047721  0.000754  0.097173  0.106234  0.000466  0.998938  0.0
H  H27  1  0.54932696  0.37475320  0.09614358  1  0.04487  0.000754  0.097195  0.106257  0.000466  0.998943  0.0
H  H28  1  0.78399534  0.09614511  0.37475817  1  0.045487  0.000754  0.09716  0.106201  0.000466  0.998951  0.0
H  H29  1  0.45068027  0.62525189  0.72139586  1  0.047635  0.000754  0.09717  0.106219  0.000466  0.998998  0.0
H  H30  1  0.20578080  0.86913994  0.18437783  1  0.007643  0.000445  0.089967  0.09075  0.000252  0.99767  0.0
H  H31  1  0.12755967  0.18437936  0.86914067  1  0.007711  0.000445  0.089996  0.090775  0.000252  0.997596  0.0
H  H32  1  0.87244273  0.81562086  0.68476143  1  0.021254  0.000443  0.09  0.090778  0.000252  0.997596  0.0
H  H33  1  0.53910468  0.31523686  0.13085622  1  0.022942  0.000443  0.090019  0.090801  0.000252  0.997574  0.0
H  H34  1  0.79421751  0.13085548  0.31523957  1  0.022998  0.000443  0.090007  0.090777  0.000252  0.997548  0.0
H  H35  1  0.46089416  0.68476627  0.81562571  1  0.021368  0.000443  0.089972  0.09073  0.000252  0.997692  0.0
H  H36  1  0.99070647  0.88857794  0.23489495  1  0.103056  3.4e-05  0.109953  0.133738  -2.1e-05  0.999595  0.0
H  H37  1  0.34263584  0.23489657  0.88857805  1  0.102976  3.4e-05  0.10994  0.133698  -2.1e-05  0.999622  0.0
H  H38  1  0.65737081  0.76510148  0.65368070  1  0.104571  3.5e-05  0.109959  0.133726  -2.1e-05  0.999611  0.0
H  H39  1  0.32403447  0.34631897  0.11141943  1  0.103258  3.5e-05  0.109953  0.133735  -2.1e-05  0.999579  0.0
H  H40  1  0.00928766  0.11141853  0.34632219  1  0.103331  3.5e-05  0.109967  0.133746  -2.1e-05  0.999669  0.0
H  H41  1  0.67596997  0.65368751  0.76510940  1  0.105142  3.5e-05  0.109986  0.133743  -2.1e-05  0.999539  0.0
H  H42  1  0.41498044  0.80239284  0.24644766  1  0.076042  0.0001  0.114932  0.100748  -0.000109  0.972921  0.0
H  H43  1  0.91836011  0.24644846  0.80239216  1  0.076082  0.0001  0.114933  0.100722  -0.000109  0.972912  0.0
H  H44  1  0.08164490  0.75354987  0.55594250  1  0.072988  0.0001  0.114931  0.10075  -0.000109  0.972922  0.0
H  H45  1  0.74831209  0.44405329  0.19760478  1  0.063793  0.0001  0.114903  0.100692  -0.000109  0.972973  0.0
H  H46  1  0.58501382  0.19760703  0.44405627  1  0.063503  0.0001  0.114896  0.100691  -0.000109  0.972909  0.0
H  H47  1  0.25169102  0.55594857  0.75355400  1  0.072939  0.0001  0.114935  0.100743  -0.000109  0.972912  0.0
H  H48  1  0.28908195  0.72937516  0.24252701  1  0.072068  0.000369  0.11589  0.103028  -0.000658  1.002563  0.0
H  H49  1  0.04425957  0.24252714  0.72937449  1  0.072086  0.000369  0.11588  0.102993  -0.000658  1.002558  0.0
H  H50  1  0.95574385  0.75747269  0.48684706  1  0.067991  0.000369  0.115861  0.102976  -0.000658  1.002622  0.0
H  H51  1  0.62241559  0.51315141  0.27062188  1  0.132638  0.000361  0.115867  0.102969  -0.000658  1.002631  0.0
H  H52  1  0.71091381  0.27062507  0.51315369  1  0.133045  0.000361  0.115861  0.10296  -0.000658  1.002602  0.0
H  H53  1  0.37759046  0.48685104  0.75747353  1  0.068123  0.000369  0.115827  0.102939  -0.000658  1.002534  0.0
H  H54  1  0.27052776  0.66899717  0.11171459  1  0.085405  0.000249  0.108426  0.087162  -3.2e-05  0.984546  0.0
H  H55  1  0.06281291  0.11171488  0.66899725  1  0.085604  0.000249  0.108388  0.087126  -3.2e-05  0.984537  0.0
H  H56  1  0.93718910  0.88828485  0.55728521  1  0.073103  0.000252  0.108402  0.087179  -3.2e-05  0.984578  0.0
H  H57  1  0.60385731  0.44271573  0.33099947  1  0.081317  0.000254  0.108408  0.087158  -3.2e-05  0.984605  0.0
H  H58  1  0.72947346  0.33100040  0.44271576  1  0.081271  0.000254  0.108417  0.087184  -3.2e-05  0.984564  0.0
H  H59  1  0.39614611  0.55728569  0.88828642  1  0.073071  0.000252  0.108402  0.087162  -3.2e-05  0.984611  0.0
H  H60  1  0.36808302  0.74515643  0.11118798  1  0.020398  3.1e-05  0.109102  0.082338  1.2e-05  0.964193  0.0
H  H61  1  0.96525951  0.11118891  0.74515751  1  0.020295  3.1e-05  0.109127  0.082358  1.2e-05  0.964093  0.0
H  H62  1  0.03474552  0.88880936  0.63396967  1  0.020037  3.1e-05  0.109139  0.082374  1.2e-05  0.964167  0.0
H  H63  1  0.70141199  0.36603046  0.25483968  1  -0.011383  3.3e-05  0.10912  0.082375  1.2e-05  0.964142  0.0
H  H64  1  0.63191526  0.25483971  0.36603122  1  -0.011354  3.3e-05  0.109139  0.082342  1.2e-05  0.964147  0.0
H  H65  1  0.29858851  0.63397161  0.88881305  1  0.020075  3.1e-05  0.109153  0.0824  1.2e-05  0.964204  0.0
H  H66  1  0.66599082  0.73261489  0.16408850  1  0.546744  6.5e-05  0.292155  0.268007  -2.8e-05  1.011515  0.0
H  H67  1  0.66734905  0.16408944  0.73261544  1  0.546756  6.5e-05  0.292179  0.268057  -2.8e-05  1.011467  0.0
H  H68  1  0.33265447  0.83591071  0.56852662  1  0.548372  6.5e-05  0.292165  0.267967  -2.8e-05  1.011523  0.0
H  H69  1  0.99932142  0.43147339  0.26738216  1  0.548526  6.6e-05  0.292121  0.267999  -2.8e-05  1.011424  0.0
H  H70  1  0.33400618  0.26738415  0.43147343  1  0.548654  6.6e-05  0.292139  0.268026  -2.8e-05  1.01144  0.0
H  H71  1  0.00068045  0.56852794  0.83591168  1  0.548426  6.5e-05  0.292167  0.268008  -2.8e-05  1.011468  0.0
H  H72  1  0.57411673  0.65796206  0.16151382  1  0.491808  0.000416  0.309552  0.263899  -0.000195  0.986894  0.0
H  H73  1  0.75922137  0.16151321  0.65796161  1  0.491796  0.000416  0.309572  0.263915  -0.000195  0.986854  0.0
H  H74  1  0.24078056  0.83848576  0.49644896  1  0.530846  0.000407  0.309564  0.26388  -0.000195  0.986862  0.0
H  H75  1  0.90744933  0.50355087  0.34203637  1  0.483445  0.000419  0.309572  0.263866  -0.000195  0.986885  0.0
H  H76  1  0.42587893  0.34203767  0.50355179  1  0.483423  0.000419  0.309558  0.26391  -0.000195  0.986922  0.0
H  H77  1  0.09255548  0.49645007  0.83848707  1  0.53086  0.000407  0.309565  0.263886  -0.000195  0.98688  0.0
H  H78  1  0.64571419  0.67117079  0.03371385  1  0.027082  3.2e-05  0.10776  0.115821  1.6e-05  0.97966  0.0
H  H79  1  0.68762197  0.03371555  0.67117426  1  0.027035  3.2e-05  0.107725  0.115809  1.6e-05  0.979665  0.0
H  H80  1  0.31237444  0.96628574  0.63745959  1  0.023306  3.2e-05  0.10777  0.115872  1.6e-05  0.979596  0.0
H  H81  1  0.97904499  0.36254037  0.32882495  1  0.086753  3.1e-05  0.107766  0.115864  1.6e-05  0.979617  0.0
H  H82  1  0.35428827  0.32882693  0.36254147  1  0.086788  3.1e-05  0.107769  0.115864  1.6e-05  0.979599  0.0
H  H83  1  0.02095853  0.63745994  0.96628675  1  0.023292  3.2e-05  0.107761  0.115867  1.6e-05  0.979605  0.0
H  H84  1  0.77909278  0.62234540  0.06598354  1  0.111765  0.000143  0.115446  0.133129  -0.000125  0.982459  0.0
H  H85  1  0.55424189  0.06598402  0.62234713  1  0.111809  0.000143  0.11546  0.133127  -0.000125  0.982471  0.0
H  H86  1  0.44575722  0.93401677  0.55636445  1  0.110443  0.000144  0.115455  0.133137  -0.000125  0.982499  0.0
H  H87  1  0.11242534  0.44363558  0.37765082  1  0.106782  0.000144  0.11546  0.133098  -0.000125  0.982503  0.0
H  H88  1  0.22090697  0.37765407  0.44363701  1  0.106489  0.000144  0.115459  0.133119  -0.000125  0.982441  0.0
H  H89  1  0.88757677  0.55636426  0.93401713  1  0.110447  0.000144  0.115457  0.13315  -0.000125  0.9825  0.0
H  H90  1  0.54281939  0.59445198  0.03236427  1  0.045907  0.000131  0.105422  0.114444  9.8e-05  1.008442  0.0
H  H91  1  0.79051500  0.03236396  0.59445401  1  0.045829  0.000131  0.105442  0.114451  9.8e-05  1.008448  0.0
H  H92  1  0.20948123  0.96763444  0.56208887  1  0.0448  0.000131  0.105437  0.114453  9.8e-05  1.008427  0.0
H  H93  1  0.87615220  0.43791058  0.40554487  1  0.047842  0.000131  0.10542  0.114403  9.8e-05  1.008363  0.0
H  H94  1  0.45718458  0.40554643  0.43791229  1  0.047843  0.000131  0.105425  0.114444  9.8e-05  1.008418  0.0
H  H95  1  0.12385140  0.56208974  0.96763600  1  0.044785  0.000131  0.105442  0.114471  9.8e-05  1.008438  0.0
C  C96  1  0.95846810  0.76033618  0.20597537  1  1.9853  0.010858  0.293537  0.652396  0.01116  4.277319  0.01
C  C97  1  0.37487066  0.20597485  0.76033579  1  1.985314  0.010856  0.293581  0.652482  0.01116  4.277272  0.01
C  C98  1  0.62513431  0.79402352  0.55435982  1  1.972314  0.010896  0.29351  0.652363  0.01116  4.277397  0.01
C  C99  1  0.29179989  0.44564075  0.23966143  1  1.976451  0.010832  0.293518  0.652427  0.01116  4.277298  0.01
C  C100  1  0.04152754  0.23966234  0.44564040  1  1.976455  0.010834  0.293554  0.652476  0.011161  4.277282  0.01
C  C101  1  0.70820332  0.55436380  0.79402594  1  1.973237  0.010895  0.293548  0.652378  0.011161  4.277263  0.01
C  C102  1  0.13601959  0.86843476  0.22971990  1  0.284977  0.000565  -0.136744  -0.249886  0.00068  3.967553  0.0
C  C103  1  0.19732108  0.22972106  0.86843510  1  0.284918  0.000566  -0.136736  -0.249806  0.00068  3.967533  0.0
C  C104  1  0.80268411  0.77027774  0.63871360  1  0.266641  0.000571  -0.136762  -0.24985  0.00068  3.967462  0.0
C  C105  1  0.46934784  0.36128412  0.13156097  1  0.269548  0.000569  -0.136822  -0.249934  0.00068  3.967428  0.0
C  C106  1  0.86397598  0.13156168  0.36128826  1  0.268852  0.000569  -0.13681  -0.249883  0.00068  3.96758  0.0
C  C107  1  0.53065521  0.63871995  0.77028306  1  0.266106  0.000571  -0.136796  -0.249827  0.00068  3.967457  0.0
C  C108  1  0.30596612  0.76171399  0.21684398  1  0.34973  0.000245  -0.056489  -0.075778  -0.000117  3.889218  0.0
C  C109  1  0.02737259  0.21684480  0.76171348  1  0.349571  0.000245  -0.056473  -0.075656  -0.000117  3.889006  0.0
C  C110  1  0.97263094  0.78315425  0.54486849  1  0.345665  0.000247  -0.056476  -0.075734  -0.000117  3.889118  0.0
C  C111  1  0.63929944  0.45513005  0.23828358  1  0.27678  0.000261  -0.056457  -0.075662  -0.000117  3.889145  0.0
C  C112  1  0.69402955  0.23828556  0.45513168  1  0.2766  0.000261  -0.056418  -0.07559  -0.000117  3.889105  0.0
C  C113  1  0.36070375  0.54487306  0.78315727  1  0.345421  0.000247  -0.056416  -0.07562  -0.000117  3.889059  0.0
C  C114  1  0.36908082  0.71428942  0.13901769  1  0.239139  0.000526  -0.058885  -0.046775  0.000431  3.828689  0.0
C  C115  1  0.96425885  0.13901871  0.71428952  1  0.239163  0.000526  -0.058885  -0.046752  0.000431  3.828558  0.0
C  C116  1  0.03574323  0.86098094  0.57527221  1  0.276192  0.00052  -0.058916  -0.04687  0.000431  3.828724  0.0
C  C117  1  0.70241151  0.42472780  0.28570829  1  0.287983  0.000519  -0.058881  -0.046846  0.000431  3.828676  0.0
C  C118  1  0.63091756  0.28570904  0.42472873  1  0.288044  0.000519  -0.058897  -0.046791  0.000432  3.828709  0.0
C  C119  1  0.29759041  0.57527400  0.86098291  1  0.276454  0.00052  -0.058933  -0.046922  0.000431  3.828894  0.0
C  C120  1  0.63678169  0.64071988  0.06168279  1  0.222372  0.000144  -0.131817  -0.236612  3.3e-05  3.847079  0.0
C  C121  1  0.69655447  0.06168385  0.64072220  1  0.222509  0.000144  -0.131815  -0.236605  3.3e-05  3.847127  0.0
C  C122  1  0.30344327  0.93831637  0.57903890  1  0.235598  0.000144  -0.131821  -0.236681  3.3e-05  3.847046  0.0
C  C123  1  0.97011278  0.42096116  0.35927616  1  0.177498  0.000145  -0.131797  -0.236578  3.3e-05  3.846931  0.0
C  C124  1  0.36322087  0.35927815  0.42096225  1  0.177423  0.000145  -0.131828  -0.236633  3.3e-05  3.847028  0.0
C  C125  1  0.02989074  0.57903904  0.93831667  1  0.235596  0.000144  -0.131836  -0.236726  3.3e-05  3.847106  0.0
C  C126  1  0.11818062  0.54353562  0.17479210  1  0.651461  0.020785  0.097459  0.349049  0.019357  4.057785  0.017
C  C127  1  0.21514837  0.17479186  0.54353571  1  0.651404  0.020786  0.097455  0.349141  0.019358  4.057764  0.017
C  C128  1  0.78485042  0.82520773  0.36874414  1  0.641991  0.020764  0.097478  0.349146  0.019358  4.057673  0.017
C  C129  1  0.45151841  0.63125627  0.45646443  1  0.642875  0.020739  0.09744  0.3491  0.019357  4.057725  0.017
C  C130  1  0.88181377  0.45646268  0.63125462  1  0.642811  0.020743  0.097515  0.349181  0.019359  4.057587  0.017
C  C131  1  0.54848367  0.36874384  0.82520751  1  0.641947  0.020763  0.097507  0.349205  0.019357  4.0577  0.017
C  C132  1  0.31590278  0.55206101  0.16480232  1  -0.0573  0.015036  -0.043153  -0.195921  0.011157  3.980821  0.008
C  C133  1  0.01743048  0.16480288  0.55206084  1  -0.057296  0.015036  -0.043207  -0.196134  0.011158  3.980868  0.008
C  C134  1  0.98257120  0.83519814  0.38726014  1  -0.076169  0.01507  -0.043134  -0.195926  0.011157  3.98083  0.008
C  C135  1  0.64923764  0.61274191  0.44794009  1  -0.056646  0.015082  -0.043197  -0.196085  0.011156  3.980914  0.008
C  C136  1  0.68409300  0.44793723  0.61273915  1  -0.056606  0.015085  -0.043172  -0.196065  0.011158  3.980769  0.008
C  C137  1  0.35076302  0.38725847  0.83519707  1  -0.076154  0.01507  -0.04321  -0.196117  0.011157  3.980836  0.008
C  C138  1  0.39466460  0.51329672  0.09595266  1  0.001546  0.008314  -0.0982  -0.142209  0.006346  4.012736  0.004
C  C139  1  0.93866544  0.09595083  0.51329510  1  0.001591  0.008316  -0.098194  -0.142177  0.006348  4.012568  0.004
C  C140  1  0.06133053  0.90404821  0.41734570  1  -0.026685  0.008364  -0.098228  -0.142272  0.006347  4.012741  0.004
C  C141  1  0.72799961  0.58265636  0.48670508  1  -0.119207  0.008512  -0.098188  -0.142179  0.006347  4.012697  0.004
C  C142  1  0.60533534  0.48670289  0.58265375  1  -0.119475  0.008513  -0.098199  -0.142197  0.006347  4.012677  0.004
C  C143  1  0.27200260  0.41734428  0.90404859  1  -0.026691  0.008365  -0.098188  -0.14216  0.006347  4.012582  0.004
C  C144  1  0.28896412  0.46799715  0.03563124  1  -0.097024  0.008702  -0.034285  0.025745  0.006587  4.075458  0.005
C  C145  1  0.04436961  0.03563133  0.46799655  1  -0.097063  0.0087  -0.034288  0.0258  0.006586  4.075497  0.005
C  C146  1  0.95562917  0.96436897  0.43236542  1  -0.022085  0.008569  -0.034322  0.02569  0.006587  4.075419  0.005
C  C147  1  0.62229508  0.56763496  0.53200487  1  0.037595  0.008509  -0.034251  0.025809  0.006586  4.075525  0.005
C  C148  1  0.71103716  0.53200340  0.56763465  1  0.082808  0.008437  -0.034314  0.025734  0.006587  4.075458  0.005
C  C149  1  0.37770298  0.43236568  0.96436874  1  -0.022116  0.008567  -0.034262  0.025817  0.006585  4.075501  0.005
C  C150  1  0.09261422  0.46124259  0.04602719  1  -0.071257  0.010735  -0.094412  -0.10814  0.008407  4.016059  0.006
C  C151  1  0.24071668  0.04602675  0.46124199  1  -0.070814  0.010738  -0.094424  -0.108167  0.008409  4.015818  0.006
C  C152  1  0.75927922  0.95397162  0.41521364  1  -0.093414  0.010754  -0.094433  -0.108121  0.008408  4.015868  0.006
C  C153  1  0.42594952  0.58478570  0.53875854  1  -0.115486  0.010739  -0.094398  -0.108069  0.008406  4.016106  0.006
C  C154  1  0.90738709  0.53875705  0.58478484  1  -0.116055  0.010743  -0.09443  -0.10818  0.008409  4.015892  0.006
C  C155  1  0.57405280  0.41521574  0.95397270  1  -0.093222  0.010755  -0.094435  -0.108208  0.008409  4.015796  0.006
C  C156  1  0.01100255  0.49758769  0.11306584  1  -0.030641  0.003132  -0.108474  -0.208296  0.001653  3.98552  0.001
C  C157  1  0.32233023  0.11306814  0.49758821  1  -0.030608  0.00313  -0.108428  -0.208274  0.001651  3.985294  0.001
C  C158  1  0.67767137  0.88693222  0.38451955  1  -0.003913  0.003109  -0.108411  -0.208268  0.001652  3.985357  0.001
C  C159  1  0.34433630  0.61547940  0.50241343  1  -0.018511  0.003117  -0.108464  -0.20835  0.001654  3.985474  0.001
C  C160  1  0.98899460  0.50241146  0.61547913  1  -0.017884  0.003114  -0.108444  -0.208273  0.001652  3.985303  0.001
C  C161  1  0.65566448  0.38452015  0.88693128  1  -0.003938  0.003107  -0.108463  -0.208287  0.001651  3.985334  0.001
C  C162  1  0.44233934  0.60307510  0.22211203  1  1.471464  0.033909  0.226376  0.600219  0.030723  4.129744  0.027
C  C163  1  0.89098740  0.22210974  0.60307295  1  1.470847  0.033919  0.226419  0.600407  0.030725  4.129724  0.027
C  C164  1  0.10901006  0.77788967  0.38096421  1  1.475382  0.033984  0.226369  0.600272  0.030724  4.129788  0.027
C  C165  1  0.77567534  0.61903641  0.39692652  1  1.478155  0.033877  0.226437  0.600389  0.03072  4.129741  0.027
C  C166  1  0.55765368  0.39692629  0.61903629  1  1.478096  0.03388  0.226407  0.600401  0.030723  4.129741  0.027
C  C167  1  0.22432519  0.38096310  0.77788879  1  1.475502  0.033981  0.226372  0.600267  0.030722  4.129787  0.027
N  N168  1  0.12773460  0.79712824  0.22004374  1  -1.181897  0.007396  -0.302719  -0.14466  0.00511  3.652477  0.005
N  N169  1  0.20560571  0.22004373  0.79712796  1  -1.181751  0.007396  -0.302732  -0.144771  0.00511  3.652594  0.005
N  N170  1  0.79439790  0.77995412  0.57708381  1  -1.176285  0.007387  -0.302704  -0.144704  0.00511  3.652473  0.005
N  N171  1  0.46106481  0.42291464  0.20286836  1  -1.15227  0.007379  -0.302689  -0.14468  0.00511  3.652334  0.005
N  N172  1  0.87226103  0.20286924  0.42291678  1  -1.152311  0.007379  -0.302671  -0.144695  0.00511  3.652489  0.005
N  N173  1  0.53893834  0.57708803  0.77995785  1  -1.176994  0.007388  -0.302671  -0.144667  0.00511  3.652279  0.005
N  N174  1  0.56472030  0.68709221  0.13480833  1  -1.091953  0.000391  -0.486314  -0.199861  0.000107  3.569962  0.0
N  N175  1  0.76861924  0.13480863  0.68709267  1  -1.092087  0.000391  -0.486333  -0.199906  0.000107  3.570081  0.0
N  N176  1  0.23138279  0.86519056  0.55228471  1  -1.143794  0.000401  -0.486322  -0.199737  0.000106  3.569884  0.0
N  N177  1  0.89805119  0.44771546  0.31290564  1  -1.095507  0.000389  -0.486335  -0.199763  0.000107  3.569789  0.0
N  N178  1  0.43527953  0.31290695  0.44771640  1  -1.095627  0.000389  -0.486337  -0.199907  0.000106  3.570083  0.0
N  N179  1  0.10195219  0.55228485  0.86519194  1  -1.14379  0.000401  -0.486337  -0.199775  0.000107  3.569881  0.0
O  O180  1  0.96313269  0.69808900  0.20048303  1  -1.223048  0.06969  -0.348868  -0.642404  0.050627  2.282045  0.032
O  O181  1  0.37020577  0.20047987  0.69808759  1  -1.223088  0.069695  -0.348891  -0.642454  0.050626  2.282104  0.032
O  O182  1  0.62979763  0.79951779  0.49760703  1  -1.224359  0.069701  -0.348891  -0.642399  0.050625  2.282157  0.032
O  O183  1  0.29646637  0.50239359  0.30190756  1  -1.236185  0.069731  -0.348894  -0.642427  0.050627  2.282004  0.032
O  O184  1  0.03686301  0.30190994  0.50239361  1  -1.236216  0.06973  -0.348829  -0.642397  0.050629  2.282185  0.032
O  O185  1  0.70353692  0.49760886  0.79951861  1  -1.224828  0.069711  -0.348917  -0.642465  0.050628  2.282147  0.032
O  O186  1  0.80801322  0.78910345  0.19808635  1  -1.198817  0.007785  -0.350952  -0.58574  0.005216  2.16528  0.006
O  O187  1  0.52532705  0.19808570  0.78910345  1  -1.198821  0.007785  -0.350932  -0.58572  0.005216  2.165183  0.006
O  O188  1  0.47467656  0.80191394  0.59101845  1  -1.198202  0.007783  -0.350927  -0.5857  0.005216  2.165223  0.006
O  O189  1  0.14134192  0.40898294  0.21089337  1  -1.195745  0.00778  -0.350913  -0.58576  0.005216  2.165293  0.006
O  O190  1  0.19198236  0.21089468  0.40898247  1  -1.19562  0.007781  -0.351009  -0.585819  0.005217  2.165154  0.006
O  O191  1  0.85865984  0.59101993  0.80191545  1  -1.198209  0.007783  -0.350916  -0.585688  0.005216  2.165299  0.006
O  O192  1  0.03158386  0.57603875  0.23771776  1  -1.215749  0.117761  -0.336509  -0.585192  0.086596  2.451836  0.052
O  O193  1  0.30174556  0.23771809  0.57603939  1  -1.215733  0.117762  -0.336495  -0.585222  0.086594  2.451792  0.052
O  O194  1  0.69825466  0.76228166  0.33832121  1  -1.219186  0.117816  -0.336509  -0.585234  0.086591  2.451773  0.052
O  O195  1  0.36492153  0.66167880  0.42396185  1  -1.219992  0.117659  -0.336481  -0.585144  0.086588  2.451748  0.052
O  O196  1  0.96841065  0.42396009  0.66167820  1  -1.219988  0.117663  -0.336539  -0.585212  0.08659  2.451771  0.052
O  O197  1  0.63507901  0.33832146  0.76228200  1  -1.219172  0.117812  -0.336486  -0.585216  0.086587  2.451797  0.052
O  O198  1  0.38450433  0.63959349  0.28635779  1  -1.204879  0.097819  -0.285555  -0.562476  0.073118  2.487608  0.046
O  O199  1  0.94882286  0.28635649  0.63959233  1  -1.204562  0.097809  -0.285518  -0.562502  0.073119  2.487662  0.046
O  O200  1  0.05117460  0.71364313  0.35323582  1  -1.202609  0.097794  -0.285505  -0.562432  0.073117  2.487611  0.046
O  O201  1  0.71784018  0.64676308  0.36040770  1  -1.202778  0.09773  -0.285578  -0.562553  0.073119  2.487664  0.046
O  O202  1  0.61548737  0.36040882  0.64676538  1  -1.202753  0.097732  -0.285509  -0.562432  0.073114  2.487628  0.046
O  O203  1  0.28216023  0.35323377  0.71364240  1  -1.202746  0.097785  -0.285531  -0.562431  0.073112  2.4875  0.046
O  O204  1  0.61204282  0.61177875  0.20426623  1  -1.212358  0.075427  -0.318604  -0.574826  0.053823  2.358376  0.034
O  O205  1  0.72128530  0.20426371  0.61177372  1  -1.212045  0.075428  -0.318672  -0.574912  0.053825  2.358348  0.034
O  O206  1  0.27871220  0.79573491  0.40751216  1  -1.210743  0.075446  -0.318649  -0.574894  0.053827  2.358402  0.034
O  O207  1  0.94537872  0.59248715  0.38822339  1  -1.21367  0.075488  -0.318664  -0.574918  0.053825  2.358382  0.034
O  O208  1  0.38795014  0.38822431  0.59248926  1  -1.213669  0.075479  -0.318667  -0.574959  0.053827  2.358387  0.034
O  O209  1  0.05462182  0.40751235  0.79573426  1  -1.210688  0.07544  -0.318622  -0.574847  0.053825  2.358416  0.034
