# generated using pymatgen
data_Zn3H24C30(NO5)2
_symmetry_space_group_name_H-M   'P 1'
_cell_length_a   15.18234302
_cell_length_b   17.74988927
_cell_length_c   17.74988215
_cell_angle_alpha   90.00000896
_cell_angle_beta   89.99997074
_cell_angle_gamma   89.99997686
_symmetry_Int_Tables_number   1
_chemical_formula_structural   Zn3H24C30(NO5)2
_chemical_formula_sum   'Zn12 H96 C120 N8 O40'
_cell_volume   4783.32534964
_cell_formula_units_Z   4
loop_
 _symmetry_equiv_pos_site_id
 _symmetry_equiv_pos_as_xyz
  1  'x, y, z'
loop_
 _atom_site_type_symbol
 _atom_site_label
 _atom_site_symmetry_multiplicity
 _atom_site_fract_x
 _atom_site_fract_y
 _atom_site_fract_z
 _atom_site_occupancy
 _atom_site_pbe_bader_charge
 _atom_site_pbe_bader_spin_density
 _atom_site_pbe_cm5_charge
 _atom_site_pbe_ddec_charge
 _atom_site_pbe_ddec_spin_density
 _atom_site_pbe_ddec_sum_bond_order
 _atom_site_pbe_magmom
Zn  Zn0  1  0.03044319  0.14571077  0.10091335  1  1.324096  0  0.672489  0.864474  0  2.323742  0
Zn  Zn1  1  0.03044345  0.85428990  0.89908659  1  1.324086  0  0.672487  0.864469  0  2.323733  0
Zn  Zn2  1  0.96955626  0.10091320  0.85428941  1  1.324077  0  0.672507  0.86449  0  2.323763  0
Zn  Zn3  1  0.96955629  0.89908658  0.14571069  1  1.324078  0  0.672493  0.864479  0  2.323717  0
Zn  Zn4  1  0.53044351  0.14571075  0.89908643  1  1.324076  0  0.672515  0.864492  0  2.323734  0
Zn  Zn5  1  0.53044359  0.85428919  0.10091386  1  1.324077  0  0.672509  0.864502  0  2.32375  0
Zn  Zn6  1  0.46955657  0.10091324  0.14571017  1  1.324101  0  0.672488  0.864489  0  2.323774  0
Zn  Zn7  1  0.46955683  0.89908672  0.85428958  1  1.324105  0  0.6725  0.864484  0  2.323721  0
Zn  Zn8  1  0.25000020  0.14892991  0.14892940  1  1.300145  0  0.671331  0.930774  0  2.371273  0
Zn  Zn9  1  0.24999982  0.85107012  0.85107045  1  1.300155  0  0.671327  0.930779  0  2.371219  0
Zn  Zn10  1  0.74999989  0.14892988  0.85107029  1  1.300154  0  0.671322  0.930761  0  2.371256  0
Zn  Zn11  1  0.74999993  0.85106998  0.14892991  1  1.300152  0  0.671334  0.93079  0  2.371217  0
H  H12  1  0.22728427  0.13693099  0.38518505  1  0.113939  0  0.10231  0.105363  0  1.017651  0
H  H13  1  0.22728403  0.86306905  0.61481424  1  0.113945  0  0.102299  0.105336  0  1.01766  0
H  H14  1  0.77271635  0.38518544  0.86306869  1  0.113997  0  0.102317  0.105368  0  1.017643  0
H  H15  1  0.77271586  0.61481442  0.13693093  1  0.113987  0  0.102309  0.105343  0  1.017688  0
H  H16  1  0.72728410  0.13693035  0.61481407  1  0.113945  0  0.102299  0.105326  0  1.017674  0
H  H17  1  0.72728400  0.86306951  0.38518613  1  0.113946  0  0.102303  0.105332  0  1.01767  0
H  H18  1  0.27271601  0.38518547  0.13693102  1  0.113945  0  0.10231  0.105359  0  1.017655  0
H  H19  1  0.27271640  0.61481456  0.86306882  1  0.11399  0  0.102308  0.10535  0  1.017661  0
H  H20  1  0.19018258  0.12107795  0.52104681  1  0.040583  0  0.100449  0.099105  0  1.008234  0
H  H21  1  0.19018242  0.87892267  0.47895307  1  0.040568  0  0.100441  0.099095  0  1.008262  0
H  H22  1  0.80981731  0.52104656  0.87892232  1  0.040572  0  0.100445  0.099093  0  1.008257  0
H  H23  1  0.80981754  0.47895328  0.12107785  1  0.040574  0  0.100445  0.099089  0  1.00826  0
H  H24  1  0.69018250  0.12107729  0.47895290  1  0.040565  0  0.100447  0.099112  0  1.008245  0
H  H25  1  0.69018230  0.87892259  0.52104676  1  0.040572  0  0.100444  0.099095  0  1.008268  0
H  H26  1  0.30981697  0.52104659  0.12107796  1  0.040576  0  0.100448  0.099097  0  1.008257  0
H  H27  1  0.30981676  0.47895286  0.87892186  1  0.040569  0  0.100444  0.099089  0  1.008267  0
H  H28  1  0.91537700  0.10211263  0.46236513  1  0.055814  0  0.09997  0.09694  0  1.00723  0
H  H29  1  0.91537744  0.89788774  0.53763499  1  0.055775  0  0.099974  0.096949  0  1.00724  0
H  H30  1  0.08462358  0.46236576  0.89788711  1  0.055792  0  0.099977  0.096945  0  1.007224  0
H  H31  1  0.08462314  0.53763490  0.10211281  1  0.055793  0  0.099968  0.096937  0  1.007232  0
H  H32  1  0.41537707  0.10211272  0.53763447  1  0.055803  0  0.09996  0.096917  0  1.007268  0
H  H33  1  0.41537691  0.89788726  0.46236530  1  0.055812  0  0.099966  0.096946  0  1.00723  0
H  H34  1  0.58462306  0.46236504  0.10211326  1  0.055822  0  0.099975  0.096954  0  1.007209  0
H  H35  1  0.58462347  0.53763487  0.89788757  1  0.055772  0  0.099943  0.096882  0  1.00726  0
H  H36  1  0.95404102  0.12071723  0.32694676  1  0.116828  0  0.109587  0.117991  0  0.994986  0
H  H37  1  0.95404140  0.87928256  0.67305334  1  0.116808  0  0.109587  0.117999  0  0.994996  0
H  H38  1  0.04595897  0.32694745  0.87928304  1  0.116838  0  0.109598  0.118006  0  0.994972  0
H  H39  1  0.04595846  0.67305321  0.12071690  1  0.11664  0  0.109592  0.117986  0  0.995003  0
H  H40  1  0.45404168  0.12071678  0.67305283  1  0.116838  0  0.109596  0.117991  0  0.994998  0
H  H41  1  0.45404094  0.87928262  0.32694637  1  0.116807  0  0.109597  0.118001  0  0.994967  0
H  H42  1  0.54595910  0.32694674  0.12071733  1  0.11666  0  0.109587  0.117987  0  0.994986  0
H  H43  1  0.54595879  0.67305319  0.87928295  1  0.116662  0  0.109591  0.117995  0  0.994988  0
H  H44  1  0.90268852  0.16410965  0.57434898  1  0.068263  0  0.108124  0.114279  0  1.001308  0
H  H45  1  0.90268907  0.83589016  0.42565115  1  0.068264  0  0.108117  0.114282  0  1.00131  0
H  H46  1  0.09731134  0.57434955  0.83589008  1  0.068262  0  0.108118  0.114284  0  1.00132  0
H  H47  1  0.09731092  0.42565054  0.16410983  1  0.068257  0  0.108126  0.114282  0  1.001302  0
H  H48  1  0.40268933  0.16410972  0.42565064  1  0.068268  0  0.108132  0.114313  0  1.001287  0
H  H49  1  0.40268912  0.83589026  0.57434914  1  0.068263  0  0.108124  0.11429  0  1.001299  0
H  H50  1  0.59731078  0.57434941  0.16410974  1  0.068267  0  0.108131  0.114305  0  1.001283  0
H  H51  1  0.59731128  0.42565107  0.83589052  1  0.068259  0  0.108117  0.114271  0  1.001343  0
H  H52  1  0.87226762  0.15520989  0.71202145  1  0.141134  0  0.120816  0.093031  0  1.001628  0
H  H53  1  0.87226758  0.84479049  0.28797869  1  0.141127  0  0.120817  0.093015  0  1.001638  0
H  H54  1  0.12773217  0.71202195  0.84479099  1  0.141123  0  0.120816  0.093008  0  1.001619  0
H  H55  1  0.12773182  0.28797812  0.15521004  1  0.141119  0  0.120816  0.093026  0  1.00163  0
H  H56  1  0.37226785  0.15520938  0.28797874  1  0.141126  0  0.120807  0.093002  0  1.001653  0
H  H57  1  0.37226822  0.84479061  0.71202161  1  0.141135  0  0.120821  0.093019  0  1.001608  0
H  H58  1  0.62773162  0.71202125  0.15520996  1  0.141142  0  0.120824  0.093028  0  1.001625  0
H  H59  1  0.62773217  0.28797866  0.84479028  1  0.141128  0  0.120812  0.093  0  1.001648  0
H  H60  1  0.10755365  0.04486849  0.75168835  1  0.141636  0  0.12451  0.099633  0  1.007046  0
H  H61  1  0.10755359  0.95513159  0.24831156  1  0.141605  0  0.124536  0.099665  0  1.007115  0
H  H62  1  0.89244611  0.75168855  0.95513184  1  0.141604  0  0.124532  0.099667  0  1.007065  0
H  H63  1  0.89244584  0.24831182  0.04486829  1  0.141623  0  0.124533  0.099654  0  1.007125  0
H  H64  1  0.60755370  0.04486836  0.24831194  1  0.141629  0  0.124522  0.099649  0  1.007087  0
H  H65  1  0.60755400  0.95513155  0.75168831  1  0.141625  0  0.124531  0.099663  0  1.007125  0
H  H66  1  0.39244582  0.75168801  0.04486844  1  0.141641  0  0.12451  0.099629  0  1.007029  0
H  H67  1  0.39244567  0.24831198  0.95513191  1  0.141628  0  0.124526  0.09966  0  1.007083  0
H  H68  1  0.14616433  0.04411016  0.61506997  1  0.056171  0  0.107621  0.11328  0  1.00943  0
H  H69  1  0.14616485  0.95589047  0.38492992  1  0.056166  0  0.107619  0.113287  0  1.009419  0
H  H70  1  0.85383550  0.61507024  0.95588959  1  0.056287  0  0.10759  0.113244  0  1.009446  0
H  H71  1  0.85383583  0.38493014  0.04411000  1  0.056167  0  0.107618  0.113284  0  1.009428  0
H  H72  1  0.64616496  0.04411005  0.38492974  1  0.056164  0  0.107618  0.113277  0  1.009422  0
H  H73  1  0.64616468  0.95589041  0.61506993  1  0.056161  0  0.107615  0.113267  0  1.009436  0
H  H74  1  0.35383587  0.61506969  0.04411012  1  0.056172  0  0.107622  0.113275  0  1.009428  0
H  H75  1  0.35383500  0.38493030  0.95588968  1  0.056167  0  0.107618  0.113288  0  1.009423  0
H  H76  1  0.22840580  0.09888291  0.98194563  1  0.054741  0  0.104897  0.060262  0  0.970857  0
H  H77  1  0.22840524  0.90111657  0.01805423  1  0.055043  0  0.104893  0.060258  0  0.970881  0
H  H78  1  0.77159450  0.98194578  0.90111688  1  0.055041  0  0.104893  0.060256  0  0.970878  0
H  H79  1  0.77159497  0.01805464  0.09888331  1  0.054791  0  0.104899  0.060277  0  0.970865  0
H  H80  1  0.72840533  0.09888331  0.01805405  1  0.055038  0  0.104896  0.060266  0  0.970874  0
H  H81  1  0.72840551  0.90111712  0.98194559  1  0.054734  0  0.104901  0.060272  0  0.970842  0
H  H82  1  0.27159484  0.98194580  0.09888293  1  0.054793  0  0.104892  0.060264  0  0.970876  0
H  H83  1  0.27159483  0.01805422  0.90111691  1  0.055046  0  0.104899  0.060271  0  0.970867  0
H  H84  1  0.26988253  0.23386451  0.00877354  1  0.019368  0  0.085254  0.121456  0  1.041536  0
H  H85  1  0.26988211  0.76613551  0.99122630  1  0.019365  0  0.085255  0.12145  0  1.041551  0
H  H86  1  0.73011764  0.00877351  0.76613563  1  0.019365  0  0.085253  0.121443  0  1.041563  0
H  H87  1  0.73011757  0.99122636  0.23386457  1  0.019363  0  0.085253  0.121451  0  1.041547  0
H  H88  1  0.76988214  0.23386450  0.99122615  1  0.019362  0  0.085254  0.121445  0  1.041558  0
H  H89  1  0.76988230  0.76613535  0.00877347  1  0.01936  0  0.085243  0.121441  0  1.041541  0
H  H90  1  0.23011790  0.00877355  0.23386404  1  0.019369  0  0.085259  0.121464  0  1.041531  0
H  H91  1  0.23011751  0.99122649  0.76613582  1  0.019369  0  0.085258  0.121451  0  1.041548  0
H  H92  1  0.16247457  0.26260563  0.98119185  1  0.01077  0  0.081614  0.116074  0  1.016672  0
H  H93  1  0.16247474  0.73739443  0.01880803  1  0.010771  0  0.081616  0.11608  0  1.016662  0
H  H94  1  0.83752509  0.98119195  0.73739465  1  0.010778  0  0.081582  0.116033  0  1.016644  0
H  H95  1  0.83752480  0.01880844  0.26260607  1  0.010765  0  0.081608  0.11607  0  1.016683  0
H  H96  1  0.66247475  0.26260547  0.01880789  1  0.010767  0  0.081604  0.116076  0  1.016668  0
H  H97  1  0.66247501  0.73739442  0.98119234  1  0.01077  0  0.081613  0.11608  0  1.016669  0
H  H98  1  0.33752533  0.98119200  0.26260569  1  0.010769  0  0.081613  0.116079  0  1.016665  0
H  H99  1  0.33752541  0.01880800  0.73739468  1  0.010772  0  0.081576  0.116018  0  1.016657  0
H  H100  1  0.23427511  0.21861773  0.91380998  1  0.067084  0  0.091983  0.135209  0  1.005255  0
H  H101  1  0.23427522  0.78138231  0.08618988  1  0.067085  0  0.091986  0.135213  0  1.005253  0
H  H102  1  0.76572392  0.91380957  0.78138256  1  0.067079  0  0.091984  0.135186  0  1.005248  0
H  H103  1  0.76572428  0.08619028  0.21861763  1  0.067082  0  0.091989  0.13523  0  1.00523  0
H  H104  1  0.73427592  0.21861758  0.08618972  1  0.067088  0  0.091994  0.135236  0  1.005224  0
H  H105  1  0.73427554  0.78138172  0.91380991  1  0.067091  0  0.091983  0.135204  0  1.00524  0
H  H106  1  0.26572419  0.91381018  0.21861780  1  0.067086  0  0.091993  0.135232  0  1.005231  0
H  H107  1  0.26572487  0.08619041  0.78138260  1  0.06708  0  0.091975  0.135172  0  1.005283  0
C  C108  1  0.09275366  0.13076139  0.34817639  1  -0.022053  0  -0.015886  -0.030977  0  3.962812  0
C  C109  1  0.09275472  0.86923813  0.65182353  1  -0.022059  0  -0.015906  -0.030851  0  3.962565  0
C  C110  1  0.90724566  0.34817673  0.86923884  1  -0.022044  0  -0.015885  -0.030975  0  3.962755  0
C  C111  1  0.90724581  0.65182364  0.13076185  1  -0.022028  0  -0.015886  -0.030964  0  3.962764  0
C  C112  1  0.59275413  0.13076133  0.65182336  1  -0.022037  0  -0.01588  -0.03098  0  3.962763  0
C  C113  1  0.59275405  0.86923859  0.34817690  1  -0.022052  0  -0.015859  -0.030878  0  3.96268  0
C  C114  1  0.40724598  0.34817620  0.13076137  1  -0.022047  0  -0.015859  -0.030894  0  3.962738  0
C  C115  1  0.40724635  0.65182378  0.86923841  1  -0.022018  0  -0.015884  -0.030949  0  3.962714  0
C  C116  1  0.15918872  0.12944250  0.40299983  1  -0.118188  0  -0.086362  -0.094184  0  3.995211  0
C  C117  1  0.15918914  0.87055756  0.59700005  1  -0.11822  0  -0.086327  -0.094165  0  3.995138  0
C  C118  1  0.84081124  0.40300018  0.87055718  1  -0.11826  0  -0.086352  -0.09416  0  3.995193  0
C  C119  1  0.84081075  0.59700021  0.12944298  1  -0.118243  0  -0.086357  -0.09416  0  3.995209  0
C  C120  1  0.65918922  0.12944243  0.59699989  1  -0.118213  0  -0.086314  -0.094082  0  3.995154  0
C  C121  1  0.65918844  0.87055746  0.40300035  1  -0.118194  0  -0.086343  -0.094146  0  3.995187  0
C  C122  1  0.34081090  0.40300021  0.12944251  1  -0.118197  0  -0.086355  -0.094185  0  3.99517  0
C  C123  1  0.34081063  0.59699979  0.87055674  1  -0.118242  0  -0.086351  -0.094154  0  3.99517  0
C  C124  1  0.13815637  0.11974104  0.47863358  1  0.009229  0  -0.090722  -0.133209  0  3.989303  0
C  C125  1  0.13815749  0.88025959  0.52136632  1  0.0094  0  -0.090737  -0.133256  0  3.989313  0
C  C126  1  0.86184288  0.47863389  0.88025865  1  0.009395  0  -0.090731  -0.133219  0  3.989314  0
C  C127  1  0.86184310  0.52136593  0.11974093  1  0.009408  0  -0.090728  -0.133201  0  3.989273  0
C  C128  1  0.63815757  0.11974040  0.52136615  1  0.009404  0  -0.09077  -0.133288  0  3.989262  0
C  C129  1  0.63815741  0.88026007  0.47863409  1  0.009387  0  -0.09074  -0.133247  0  3.989314  0
C  C130  1  0.36184321  0.47863392  0.11974104  1  0.009404  0  -0.090738  -0.133222  0  3.9893  0
C  C131  1  0.36184297  0.52136608  0.88025933  1  0.009403  0  -0.090739  -0.133232  0  3.989307  0
C  C132  1  0.04997696  0.11115227  0.50147375  1  0.000346  0  -0.006305  0.063213  0  3.998984  0
C  C133  1  0.04997743  0.88884839  0.49852619  1  -4.8e-05  0  -0.006281  0.063289  0  3.998918  0
C  C134  1  0.95002294  0.50147346  0.88884742  1  0.000187  0  -0.006303  0.063244  0  3.998915  0
C  C135  1  0.95002317  0.49852633  0.11115212  1  -5.5e-05  0  -0.006296  0.063226  0  3.998931  0
C  C136  1  0.54997686  0.11115219  0.49852658  1  0.000184  0  -0.00627  0.063283  0  3.99886  0
C  C137  1  0.54997733  0.88884831  0.50147426  1  -6.4e-05  0  -0.006298  0.063261  0  3.998948  0
C  C138  1  0.45002327  0.50147348  0.11115223  1  -8.2e-05  0  -0.006276  0.063242  0  3.998984  0
C  C139  1  0.45002304  0.49852705  0.88884753  1  0.000181  0  -0.006266  0.063262  0  3.998936  0
C  C140  1  0.98386840  0.11102760  0.44591994  1  -0.028283  0  -0.089368  -0.130288  0  3.98482  0
C  C141  1  0.98386819  0.88897218  0.55408015  1  -0.028275  0  -0.089383  -0.130342  0  3.98488  0
C  C142  1  0.01613153  0.44591947  0.88897213  1  -0.028264  0  -0.089365  -0.130303  0  3.984831  0
C  C143  1  0.01613173  0.55408065  0.11102782  1  -0.028264  0  -0.089362  -0.130281  0  3.984815  0
C  C144  1  0.48386913  0.11102713  0.55408020  1  -0.028272  0  -0.089352  -0.130291  0  3.984836  0
C  C145  1  0.48386832  0.88897226  0.44592011  1  -0.028283  0  -0.089377  -0.13034  0  3.984866  0
C  C146  1  0.51613100  0.44591988  0.11102770  1  -0.02828  0  -0.089366  -0.130307  0  3.984847  0
C  C147  1  0.51613140  0.55408062  0.88897203  1  -0.02824  0  -0.089339  -0.130226  0  3.98484  0
C  C148  1  0.00492532  0.12081261  0.37025880  1  -0.063918  0  -0.080087  -0.084878  0  3.974477  0
C  C149  1  0.00492572  0.87918807  0.62974115  1  -0.06384  0  -0.080095  -0.084944  0  3.974406  0
C  C150  1  0.99507465  0.37025911  0.87918706  1  -0.063925  0  -0.080069  -0.084853  0  3.974507  0
C  C151  1  0.99507482  0.62974123  0.12081303  1  -0.063733  0  -0.080079  -0.084866  0  3.974538  0
C  C152  1  0.50492514  0.12081255  0.62974098  1  -0.063925  0  -0.080084  -0.084847  0  3.974452  0
C  C153  1  0.50492570  0.87918796  0.37025932  1  -0.063876  0  -0.080075  -0.084874  0  3.974454  0
C  C154  1  0.49507432  0.37025857  0.12081312  1  -0.063743  0  -0.08009  -0.084883  0  3.974524  0
C  C155  1  0.49507469  0.62974138  0.87918719  1  -0.063766  0  -0.080084  -0.084893  0  3.974502  0
C  C156  1  0.02794872  0.10509253  0.58216556  1  0.000406  0  0.01373  0.11162  0  3.991569  0
C  C157  1  0.02794924  0.89490758  0.41783439  1  0.000403  0  0.013738  0.111613  0  3.991533  0
C  C158  1  0.97205114  0.58216522  0.89490718  1  0.000421  0  0.013689  0.11159  0  3.991502  0
C  C159  1  0.97205076  0.41783456  0.10509348  1  0.000384  0  0.01371  0.1116  0  3.991605  0
C  C160  1  0.52794866  0.10509243  0.41783422  1  0.000409  0  0.013725  0.111591  0  3.991505  0
C  C161  1  0.52794909  0.89490751  0.58216551  1  0.000401  0  0.013709  0.111567  0  3.991495  0
C  C162  1  0.47205082  0.58216525  0.10509303  1  0.000403  0  0.013696  0.111556  0  3.991596  0
C  C163  1  0.47205062  0.41783471  0.89490728  1  0.000407  0  0.013702  0.111601  0  3.991559  0
C  C164  1  0.94937104  0.13544749  0.61116950  1  -0.034402  0  -0.086121  -0.185454  0  3.955566  0
C  C165  1  0.94937093  0.86455287  0.38883061  1  -0.034389  0  -0.086109  -0.185455  0  3.95552  0
C  C166  1  0.05062881  0.61116951  0.86455169  1  -0.034394  0  -0.086129  -0.185519  0  3.955533  0
C  C167  1  0.05062908  0.38883116  0.13544768  1  -0.034405  0  -0.086136  -0.185478  0  3.955531  0
C  C168  1  0.44937120  0.13544756  0.38883066  1  -0.034403  0  -0.08614  -0.185511  0  3.95553  0
C  C169  1  0.44937096  0.86455241  0.61116966  1  -0.034386  0  -0.086137  -0.185513  0  3.955478  0
C  C170  1  0.55062892  0.61116936  0.13544759  1  -0.034395  0  -0.08612  -0.185468  0  3.95552  0
C  C171  1  0.55062876  0.38883113  0.86455269  1  -0.034389  0  -0.086106  -0.185457  0  3.955576  0
C  C172  1  0.93251525  0.13177987  0.68800099  1  0.437237  0  0.051982  0.100156  0  3.954156  0
C  C173  1  0.93251519  0.86821993  0.31199856  1  0.437228  0  0.05201  0.100217  0  3.95415  0
C  C174  1  0.06748521  0.68800153  0.86821989  1  0.437221  0  0.052032  0.100274  0  3.954057  0
C  C175  1  0.06748552  0.31199856  0.13178060  1  0.437233  0  0.052028  0.10023  0  3.954013  0
C  C176  1  0.43251480  0.13177993  0.31199861  1  0.437225  0  0.051992  0.100226  0  3.954128  0
C  C177  1  0.43251518  0.86822004  0.68800172  1  0.437228  0  0.052013  0.100264  0  3.954018  0
C  C178  1  0.56748467  0.68800139  0.13177996  1  0.437225  0  0.052014  0.100224  0  3.954135  0
C  C179  1  0.56748520  0.31199854  0.86821975  1  0.437244  0  0.05201  0.100252  0  3.954091  0
C  C180  1  0.06402349  0.06986133  0.70984245  1  0.451164  0  0.056565  0.108949  0  3.92677  0
C  C181  1  0.06402407  0.93013877  0.29015748  1  0.451187  0  0.056567  0.108953  0  3.926747  0
C  C182  1  0.93597630  0.70984265  0.93013842  1  0.451178  0  0.056566  0.108923  0  3.926733  0
C  C183  1  0.93597600  0.29015715  0.06986113  1  0.451168  0  0.056569  0.108964  0  3.926744  0
C  C184  1  0.56402351  0.06986177  0.29015674  1  0.451161  0  0.056572  0.108954  0  3.926726  0
C  C185  1  0.56402384  0.93013872  0.70984297  1  0.451165  0  0.056542  0.108889  0  3.926763  0
C  C186  1  0.43597600  0.70984210  0.06986183  1  0.451172  0  0.056563  0.108948  0  3.926773  0
C  C187  1  0.43597650  0.29015730  0.93013850  1  0.451171  0  0.056567  0.108946  0  3.926722  0
C  C188  1  0.08547079  0.07093287  0.63382786  1  0.030705  0  -0.082059  -0.176051  0  3.946284  0
C  C189  1  0.08547067  0.92906722  0.36617206  1  0.030702  0  -0.082093  -0.176107  0  3.946235  0
C  C190  1  0.91452903  0.63382866  0.92906630  1  0.030605  0  -0.082052  -0.176069  0  3.946203  0
C  C191  1  0.91452935  0.36617227  0.07093269  1  0.030729  0  -0.082085  -0.176106  0  3.946213  0
C  C192  1  0.58547077  0.07093276  0.36617189  1  0.030724  0  -0.082075  -0.176055  0  3.946171  0
C  C193  1  0.58547115  0.92906715  0.63382782  1  0.030713  0  -0.082082  -0.176046  0  3.946208  0
C  C194  1  0.41452939  0.63382755  0.07093282  1  0.030699  0  -0.082053  -0.176013  0  3.946273  0
C  C195  1  0.41452920  0.36617186  0.92906695  1  0.030715  0  -0.082092  -0.176114  0  3.946216  0
C  C196  1  0.11532596  0.14176314  0.26645866  1  1.553206  0  0.214386  0.584651  0  4.203  0
C  C197  1  0.11532631  0.85823638  0.73354069  1  1.553188  0  0.214403  0.584658  0  4.202869  0
C  C198  1  0.88467407  0.26645904  0.85823651  1  1.553192  0  0.214367  0.584583  0  4.203019  0
C  C199  1  0.88467417  0.73354077  0.14176306  1  1.553609  0  0.214374  0.584602  0  4.202998  0
C  C200  1  0.61532638  0.14176309  0.73354109  1  1.553197  0  0.214372  0.584584  0  4.203009  0
C  C201  1  0.61532635  0.85823625  0.26645917  1  1.553648  0  0.214358  0.584562  0  4.202966  0
C  C202  1  0.38467372  0.26645851  0.14176313  1  1.553198  0  0.214395  0.584654  0  4.202935  0
C  C203  1  0.38467406  0.73354091  0.85823666  1  1.553606  0  0.214362  0.584601  0  4.203014  0
C  C204  1  0.17833051  0.14170572  0.99643194  1  0.509241  0  -0.01307  0.153801  0  3.949851  0
C  C205  1  0.17833064  0.85829434  0.00356794  1  0.509223  0  -0.013077  0.153794  0  3.949904  0
C  C206  1  0.82166979  0.99643206  0.85829461  1  0.509231  0  -0.013047  0.153844  0  3.949843  0
C  C207  1  0.82166958  0.00356778  0.14170611  1  0.509231  0  -0.013055  0.153777  0  3.949872  0
C  C208  1  0.67833071  0.14170612  0.00356834  1  0.509236  0  -0.013081  0.153783  0  3.949883  0
C  C209  1  0.67833090  0.85829377  0.99643245  1  0.509256  0  -0.013065  0.153808  0  3.949832  0
C  C210  1  0.32166944  0.99643152  0.14170574  1  0.509229  0  -0.013079  0.15378  0  3.949894  0
C  C211  1  0.32167012  0.00356792  0.85829464  1  0.509234  0  -0.013049  0.153808  0  3.94986  0
C  C212  1  0.09578925  0.12490394  0.95043560  1  1.54534  0  0.204385  0.56288  0  4.104416  0
C  C213  1  0.09578934  0.87509615  0.04956432  1  1.545346  0  0.204404  0.562924  0  4.104326  0
C  C214  1  0.90421041  0.95043570  0.87509583  1  1.545331  0  0.204394  0.562914  0  4.104314  0
C  C215  1  0.90421019  0.04956411  0.12490430  1  1.545342  0  0.204417  0.562989  0  4.104278  0
C  C216  1  0.59578942  0.12490378  0.04956415  1  1.545347  0  0.204405  0.562934  0  4.104328  0
C  C217  1  0.59578963  0.87509557  0.95043554  1  1.545349  0  0.204391  0.562919  0  4.104329  0
C  C218  1  0.40421073  0.95043573  0.12490448  1  1.545345  0  0.204402  0.562948  0  4.10436  0
C  C219  1  0.40421072  0.04956425  0.87509587  1  1.545334  0  0.204373  0.562855  0  4.104368  0
C  C220  1  0.21346473  0.21934676  0.97300305  1  -0.053476  0  -0.251818  -0.423068  0  3.926948  0
C  C221  1  0.21346488  0.78065329  0.02699681  1  -0.05348  0  -0.251823  -0.423074  0  3.92695  0
C  C222  1  0.78653492  0.97300318  0.78065354  1  -0.053468  0  -0.251825  -0.423037  0  3.926894  0
C  C223  1  0.78653531  0.02699667  0.21934720  1  -0.053471  0  -0.251842  -0.423104  0  3.92695  0
C  C224  1  0.71346492  0.21934716  0.02699666  1  -0.053486  0  -0.251833  -0.423108  0  3.926954  0
C  C225  1  0.71346516  0.78065271  0.97300355  1  -0.053485  0  -0.251825  -0.423078  0  3.926909  0
C  C226  1  0.28653519  0.97300322  0.21934682  1  -0.053482  0  -0.251836  -0.423107  0  3.926941  0
C  C227  1  0.28653524  0.02699680  0.78065357  1  -0.053467  0  -0.251816  -0.423007  0  3.926931  0
N  N228  1  0.98924891  0.10007544  0.73677088  1  -1.241798  0  -0.319894  -0.228889  0  3.539549  0
N  N229  1  0.98924886  0.89992434  0.26322864  1  -1.241778  0  -0.319925  -0.228925  0  3.539557  0
N  N230  1  0.01075086  0.73677143  0.89992434  1  -1.241804  0  -0.319912  -0.228882  0  3.539455  0
N  N231  1  0.01075121  0.26322869  0.10007561  1  -1.24179  0  -0.319926  -0.22893  0  3.539446  0
N  N232  1  0.48924915  0.10007549  0.26322869  1  -1.241837  0  -0.319914  -0.22894  0  3.539541  0
N  N233  1  0.48924948  0.89992446  0.73677162  1  -1.241837  0  -0.319889  -0.228883  0  3.539432  0
N  N234  1  0.51075100  0.73677128  0.10007554  1  -1.241784  0  -0.319935  -0.228961  0  3.539601  0
N  N235  1  0.51075087  0.26322810  0.89992419  1  -1.241793  0  -0.319906  -0.228927  0  3.539522  0
O  O236  1  0.05272167  0.14514176  0.21992935  1  -1.165834  0  -0.305612  -0.542112  0  2.329389  0
O  O237  1  0.05272199  0.85485778  0.78007002  1  -1.165815  0  -0.305603  -0.542102  0  2.329337  0
O  O238  1  0.94727772  0.21992973  0.85485788  1  -1.165823  0  -0.305606  -0.542074  0  2.329381  0
O  O239  1  0.94727780  0.78007007  0.14514223  1  -1.165824  0  -0.305608  -0.542072  0  2.329359  0
O  O240  1  0.55272206  0.14514228  0.78006986  1  -1.165818  0  -0.305604  -0.542058  0  2.329369  0
O  O241  1  0.55272206  0.85485765  0.21992986  1  -1.165823  0  -0.305608  -0.542075  0  2.329368  0
O  O242  1  0.44727803  0.21992976  0.14514173  1  -1.16583  0  -0.305612  -0.542109  0  2.329368  0
O  O243  1  0.44727769  0.78007021  0.85485803  1  -1.165825  0  -0.305609  -0.542082  0  2.329368  0
O  O244  1  0.19799700  0.14646569  0.25161516  1  -1.174409  0  -0.326971  -0.573821  0  2.359613  0
O  O245  1  0.19799734  0.85353380  0.74838415  1  -1.174429  0  -0.326972  -0.573861  0  2.359612  0
O  O246  1  0.80200304  0.25161558  0.85353396  1  -1.174418  0  -0.326966  -0.573807  0  2.359652  0
O  O247  1  0.80200313  0.74838426  0.14646621  1  -1.174873  0  -0.326964  -0.573822  0  2.359648  0
O  O248  1  0.69799741  0.14646564  0.74838398  1  -1.174431  0  -0.326981  -0.573829  0  2.359654  0
O  O249  1  0.69799673  0.85353424  0.25161623  1  -1.174869  0  -0.326966  -0.573819  0  2.359657  0
O  O250  1  0.30200269  0.25161561  0.14646571  1  -1.174431  0  -0.326975  -0.573852  0  2.35963  0
O  O251  1  0.30200368  0.74838440  0.85353411  1  -1.174861  0  -0.326938  -0.573808  0  2.359644  0
O  O252  1  0.15840567  0.13831577  0.07434075  1  -1.1568  0  -0.40581  -0.625323  0  2.494203  0
O  O253  1  0.15840590  0.86168429  0.92565970  1  -1.156803  0  -0.405816  -0.62534  0  2.494239  0
O  O254  1  0.84159512  0.07434067  0.86168442  1  -1.156805  0  -0.405796  -0.625327  0  2.494224  0
O  O255  1  0.84159448  0.92565916  0.13831574  1  -1.156808  0  -0.405818  -0.625324  0  2.494195  0
O  O256  1  0.65840531  0.13831575  0.92565953  1  -1.156795  0  -0.405794  -0.625308  0  2.494217  0
O  O257  1  0.65840540  0.86168414  0.07434070  1  -1.156807  0  -0.405799  -0.625327  0  2.49421  0
O  O258  1  0.34159478  0.07434070  0.13831578  1  -1.156793  0  -0.405793  -0.625321  0  2.494218  0
O  O259  1  0.34159436  0.92565987  0.86168459  1  -1.156811  0  -0.405813  -0.62531  0  2.494193  0
O  O260  1  0.02096745  0.12526621  0.98318963  1  -1.162985  0  -0.307756  -0.532165  0  2.304858  0
O  O261  1  0.02096757  0.87473391  0.01681032  1  -1.163031  0  -0.307758  -0.532185  0  2.30485  0
O  O262  1  0.97903219  0.98318969  0.87473412  1  -1.162972  0  -0.307769  -0.532211  0  2.304846  0
O  O263  1  0.97903264  0.01681065  0.12526597  1  -1.162986  0  -0.307781  -0.53225  0  2.304821  0
O  O264  1  0.52096764  0.12526604  0.01681015  1  -1.163021  0  -0.307758  -0.532194  0  2.304851  0
O  O265  1  0.52096784  0.87473389  0.98318958  1  -1.162959  0  -0.307761  -0.532201  0  2.304843  0
O  O266  1  0.47903251  0.98318916  0.12526559  1  -1.16299  0  -0.307763  -0.532205  0  2.304845  0
O  O267  1  0.47903252  0.01681023  0.87473416  1  -1.162993  0  -0.307742  -0.532157  0  2.304823  0
O  O268  1  0.10293310  0.11379006  0.87991118  1  -1.175216  0  -0.318524  -0.527351  0  2.220325  0
O  O269  1  0.10293380  0.88620946  0.12008929  1  -1.175226  0  -0.318535  -0.527369  0  2.220267  0
O  O270  1  0.89706726  0.87991132  0.88620970  1  -1.175213  0  -0.31849  -0.527309  0  2.220305  0
O  O271  1  0.89706701  0.12008905  0.11379043  1  -1.175217  0  -0.318503  -0.527343  0  2.220289  0
O  O272  1  0.60293323  0.11379047  0.12008913  1  -1.175216  0  -0.318514  -0.527346  0  2.220312  0
O  O273  1  0.60293347  0.88620944  0.87991113  1  -1.175218  0  -0.318493  -0.527324  0  2.220291  0
O  O274  1  0.39706693  0.87991078  0.11379060  1  -1.175216  0  -0.318522  -0.527367  0  2.220289  0
O  O275  1  0.39706688  0.12008864  0.88620975  1  -1.175207  0  -0.318509  -0.527322  0  2.220314  0
