# generated using pymatgen
data_Zr6H19C52S10N4Cl5O32
_symmetry_space_group_name_H-M   'P 1'
_cell_length_a   16.44656940
_cell_length_b   16.47490949
_cell_length_c   16.52159304
_cell_angle_alpha   62.08259943
_cell_angle_beta   59.94358827
_cell_angle_gamma   60.23373959
_symmetry_Int_Tables_number   1
_chemical_formula_structural   Zr6H19C52S10N4Cl5O32
_chemical_formula_sum   'Zr6 H19 C52 S10 N4 Cl5 O32'
_cell_volume   3216.63553045
_cell_formula_units_Z   1
loop_
 _symmetry_equiv_pos_site_id
 _symmetry_equiv_pos_as_xyz
  1  'x, y, z'
loop_
 _atom_site_type_symbol
 _atom_site_label
 _atom_site_symmetry_multiplicity
 _atom_site_fract_x
 _atom_site_fract_y
 _atom_site_fract_z
 _atom_site_occupancy
 _atom_site_pbe_bader_charge
 _atom_site_pbe_bader_spin_density
 _atom_site_pbe_cm5_charge
 _atom_site_pbe_ddec_charge
 _atom_site_pbe_ddec_spin_density
 _atom_site_pbe_ddec_sum_bond_order
 _atom_site_pbe_magmom
Zr  Zr0  1  0.88821603  0.90206880  0.60031212  1  2.638938  0  1.629441  2.373676  0  2.778096  0
Zr  Zr1  1  0.10763660  0.10621321  0.39664225  1  2.637488  0  1.627867  2.375719  0  2.769367  0
Zr  Zr2  1  0.10235911  0.89822716  0.60481286  1  2.633527  0  1.622079  2.374253  0  2.757439  0
Zr  Zr3  1  0.89365277  0.11019201  0.39322078  1  2.631127  0  1.619657  2.367465  0  2.760627  0
Zr  Zr4  1  0.10763920  0.89428878  0.38987275  1  2.638674  0  1.617227  2.378638  0  2.724944  0
Zr  Zr5  1  0.88868084  0.11272166  0.60899659  1  2.636189  0  1.616998  2.378851  0  2.723041  0
H  H6  1  0.07896457  0.75463284  0.57795414  1  0.614068  0  0.332347  0.426449  0  0.853393  0
H  H7  1  0.08746277  0.08318858  0.24974171  1  0.615209  0  0.331469  0.42493  0  0.852321  0
H  H8  1  0.08219594  0.08615471  0.58751478  1  0.602313  0  0.331191  0.426176  0  0.851519  0
H  H9  1  0.74277722  0.09288441  0.58125798  1  0.618127  0  0.33095  0.424675  0  0.857073  0
H  H10  1  0.12467324  0.61184596  0.36137707  1  0.126361  0  0.122198  0.147925  0  0.969437  0
H  H11  1  0.61040883  0.12601080  0.90365310  1  0.121428  0  0.120151  0.144992  0  0.972761  0
H  H12  1  0.86053424  0.11950705  0.12521817  1  0.139132  0  0.118801  0.14397  0  0.976787  0
H  H13  1  0.62087264  0.39656132  0.36559397  1  0.117005  0  0.118996  0.144427  0  0.973916  0
H  H14  1  0.86606953  0.64837957  0.82814800  1  0.099205  0  0.102738  0.116687  0  1.021014  0
H  H15  1  0.15553405  0.33375150  0.14165395  1  0.062491  0  0.102378  0.117043  0  1.01841  0
H  H16  1  0.61935951  0.87316038  0.61091833  1  0.12255  0  0.121466  0.147067  0  0.972363  0
H  H17  1  0.23692123  0.49191861  0.91785526  1  0.410163  0  0.296392  0.282508  0  0.958792  0
H  H18  1  0.24920575  0.42611433  0.02648490  1  0.413677  0  0.29851  0.288506  0  0.947933  0
H  H19  1  0.10248041  0.71879205  0.83702701  1  0.513857  0  0.297267  0.307484  0  1.000274  0
H  H20  1  0.13975222  0.62611935  0.93690060  1  0.486291  0  0.297054  0.294301  0  1.004186  0
H  H21  1  0.85193072  0.42588818  0.97859720  1  0.388565  0  0.298668  0.282988  0  0.9496  0
H  H22  1  0.79154572  0.53721891  0.92175179  1  0.406111  0  0.298292  0.287482  0  0.948698  0
H  H23  1  0.84351088  0.33681641  0.20941172  1  0.491347  0  0.301289  0.312226  0  0.992701  0
H  H24  1  0.79825744  0.43665439  0.11620877  1  0.483081  0  0.298114  0.296317  0  1.004255  0
C  C25  1  0.99518011  0.73913743  0.48510706  1  1.570168  0  0.225549  0.641979  0  4.156874  0
C  C26  1  0.27931599  0.98969011  0.23450958  1  1.582121  0  0.223253  0.656718  0  4.145694  0
C  C27  1  0.99275084  0.27617850  0.50470320  1  1.576751  0  0.224117  0.656255  0  4.147114  0
C  C28  1  0.72533386  0.00791305  0.77167246  1  1.592802  0  0.227215  0.645738  0  4.152003  0
C  C29  1  0.98379715  0.74335715  0.76629098  1  1.455281  0  0.223921  0.643076  0  4.081078  0
C  C30  1  0.73049324  0.00296083  0.49011762  1  1.582134  0  0.225553  0.644631  0  4.157572  0
C  C31  1  0.00487932  0.27147850  0.23714320  1  1.448617  0  0.223632  0.640475  0  4.082781  0
C  C32  1  0.27543365  0.99678054  0.49579996  1  1.592296  0  0.221804  0.652936  0  4.153384  0
C  C33  1  0.27422464  0.73473323  0.49505879  1  1.584246  0  0.22311  0.657103  0  4.145017  0
C  C34  1  0.99357091  0.00073964  0.77571708  1  1.589054  0  0.222429  0.654139  0  4.154811  0
C  C35  1  0.73038800  0.28145566  0.49668945  1  1.564273  0  0.225291  0.646004  0  4.149801  0
C  C36  1  0.99702967  0.99902105  0.22968144  1  1.594298  0  0.226225  0.644357  0  4.148892  0
C  C37  1  0.92139571  0.42757888  0.56289136  1  0.137411  0  0.007918  0.100841  0  4.088199  0
C  C38  1  0.06065598  0.59389208  0.42266895  1  0.08748  0  -0.087326  -0.132991  0  3.959325  0
C  C39  1  0.98924164  0.36836227  0.50144191  1  -0.10292  0  -0.028307  -0.187217  0  3.932895  0
C  C40  1  0.99318559  0.65066832  0.48564584  1  -0.191044  0  -0.020871  -0.111971  0  3.960285  0
C  C41  1  0.03438848  0.51248414  0.45038362  1  -0.188328  0  -0.020593  0.002351  0  4.074608  0
C  C42  1  0.94714737  0.50972200  0.53388633  1  -0.117256  0  -0.031317  -0.087928  0  4.096721  0
C  C43  1  0.42310973  0.92566425  0.08828129  1  0.100414  0  0.008868  0.101476  0  4.088466  0
C  C44  1  0.58972548  0.06456794  0.92211804  1  0.071616  0  -0.088772  -0.133695  0  3.962397  0
C  C45  1  0.36969475  0.98796723  0.14669072  1  -0.105793  0  -0.029107  -0.187305  0  3.932182  0
C  C46  1  0.64019844  0.00281814  0.86428931  1  -0.195083  0  -0.020185  -0.113221  0  3.960364  0
C  C47  1  0.51061716  0.03625205  0.00440429  1  -0.195622  0  -0.0222  0.000991  0  4.078123  0
C  C48  1  0.50335645  0.95326543  0.00702276  1  -0.109355  0  -0.029939  -0.085603  0  4.092633  0
C  C49  1  0.06378835  0.93443001  0.91285608  1  0.172709  0  0.008736  0.099819  0  4.082755  0
C  C50  1  0.92482144  0.06065018  0.09738734  1  0.038698  0  -0.089891  -0.135632  0  3.962596  0
C  C51  1  0.99440950  0.99768012  0.86568848  1  -0.145872  0  -0.029002  -0.188681  0  3.928998  0
C  C52  1  0.99525310  0.99718912  0.14230335  1  -0.178784  0  -0.020946  -0.112052  0  3.953757  0
C  C53  1  0.94920251  0.03749932  0.01388881  1  -0.198117  0  -0.021542  0.003276  0  4.07273  0
C  C54  1  0.03799122  0.95689654  0.99733294  1  -0.141502  0  -0.030234  -0.088568  0  4.096678  0
C  C55  1  0.41709567  0.59986621  0.55995461  1  0.177546  0  0.008034  0.101222  0  4.080185  0
C  C56  1  0.59642959  0.42210432  0.42671900  1  0.050765  0  -0.089284  -0.132555  0  3.962915  0
C  C57  1  0.36632430  0.64905649  0.49422890  1  -0.125559  0  -0.02821  -0.187158  0  3.924723  0
C  C58  1  0.64421297  0.37324665  0.49419414  1  -0.183151  0  -0.021475  -0.113985  0  3.954474  0
C  C59  1  0.51391820  0.50540630  0.45000688  1  -0.135632  0  -0.021658  0.002252  0  4.074098  0
C  C60  1  0.50112729  0.51798620  0.53485273  1  -0.18594  0  -0.03057  -0.087369  0  4.091929  0
C  C61  1  0.04245252  0.61098134  0.90578618  1  0.427994  0  0.117108  0.279856  0  4.012223  0
C  C62  1  0.91002849  0.61409323  0.87506178  1  -0.076161  0  -0.113904  -0.220309  0  4.057718  0
C  C63  1  0.89682079  0.53363198  0.95395573  1  0.357155  0  0.064245  0.210829  0  4.087839  0
C  C64  1  0.95756391  0.48711088  0.01345660  1  0.051797  0  -0.012623  -0.09191  0  3.910369  0
C  C65  1  0.93968378  0.40924346  0.10361077  1  0.456669  0  0.115369  0.274384  0  4.023032  0
C  C66  1  0.09879254  0.38043810  0.10754688  1  0.011304  0  -0.115612  -0.223667  0  4.050711  0
C  C67  1  0.11279410  0.45984554  0.02742129  1  0.323037  0  0.066265  0.217005  0  4.087406  0
C  C68  1  0.03819731  0.51960868  0.98196707  1  -0.028737  0  -0.012803  -0.091847  0  3.903044  0
C  C69  1  0.97912814  0.65610946  0.85078872  1  0.06668  0  -0.046592  -0.176263  0  4.012204  0
C  C70  1  0.01237014  0.35544681  0.14931544  1  0.043743  0  -0.046209  -0.176768  0  4.015492  0
C  C71  1  0.42131557  0.05910153  0.42346763  1  0.139786  0  0.008648  0.102694  0  4.085483  0
C  C72  1  0.59626303  0.93205689  0.55085449  1  0.071433  0  -0.08691  -0.129071  0  3.958209  0
C  C73  1  0.36837389  0.99505725  0.48950539  1  -0.08746  0  -0.028677  -0.186592  0  3.932808  0
C  C74  1  0.64536765  0.99869900  0.48643135  1  -0.202471  0  -0.021798  -0.11555  0  3.968017  0
C  C75  1  0.51482947  0.95323403  0.52754281  1  -0.157347  0  -0.021192  0.002347  0  4.076153  0
C  C76  1  0.50459379  0.03538278  0.44539854  1  -0.171612  0  -0.030766  -0.086131  0  4.100271  0
S  S77  1  0.08391188  0.41390623  0.40796955  1  0.273131  0  0.091295  0.144415  0  2.749343  0
S  S78  1  0.89728028  0.60663987  0.57827020  1  0.273744  0  0.082443  0.132212  0  2.784748  0
S  S79  1  0.41860610  0.07955475  0.10237744  1  0.280456  0  0.083632  0.132338  0  2.768565  0
S  S80  1  0.59326141  0.90981732  0.90915147  1  0.287387  0  0.089091  0.143184  0  2.776874  0
S  S81  1  0.89800392  0.08475664  0.92519168  1  0.281246  0  0.08555  0.13573  0  2.737153  0
S  S82  1  0.09104241  0.90904257  0.08426936  1  0.29568  0  0.08834  0.139444  0  2.776898  0
S  S83  1  0.42265332  0.59513039  0.40133594  1  0.276497  0  0.088832  0.139695  0  2.742665  0
S  S84  1  0.59035920  0.42825648  0.58561291  1  0.285846  0  0.084701  0.134556  0  2.784982  0
S  S85  1  0.42180749  0.90534313  0.57710782  1  0.2931  0  0.089562  0.138577  0  2.76194  0
S  S86  1  0.59446823  0.08652699  0.39667123  1  0.27453  0  0.08225  0.13216  0  2.776572  0
N  N87  1  0.20107105  0.48089564  0.99147325  1  -1.167069  0  -0.607029  -0.625277  0  3.290649  0
N  N88  1  0.10421068  0.65337259  0.88937685  1  -1.303641  0  -0.593018  -0.610182  0  3.40395  0
N  N89  1  0.82307982  0.49813498  0.97445498  1  -1.143676  0  -0.60604  -0.624803  0  3.287745  0
N  N90  1  0.85363579  0.38990205  0.14435303  1  -1.302986  0  -0.593738  -0.606732  0  3.375645  0
Cl  Cl91  1  0.81869851  0.40784273  0.66224618  1  -0.164236  0  0.004254  -0.040025  0  1.517233  0
Cl  Cl92  1  0.39832849  0.82780002  0.10713267  1  -0.158156  0  0.008231  -0.035145  0  1.515257  0
Cl  Cl93  1  0.17035047  0.84107309  0.87681797  1  -0.162642  0  0.015826  -0.024375  0  1.539388  0
Cl  Cl94  1  0.38611318  0.62928256  0.66070250  1  -0.17233  0  0.006527  -0.035403  0  1.530435  0
Cl  Cl95  1  0.39373527  0.15648610  0.32726464  1  -0.164095  0  0.007419  -0.039062  0  1.538728  0
O  O96  1  0.92424088  0.77695108  0.55327941  1  -1.179766  0  -0.356268  -0.616175  0  2.296426  0
O  O97  1  0.24431112  0.05936756  0.27032086  1  -1.177277  0  -0.354744  -0.614461  0  2.281602  0
O  O98  1  0.06550679  0.23813737  0.43730451  1  -1.177299  0  -0.355087  -0.61362  0  2.279068  0
O  O99  1  0.75802436  0.94213412  0.73166362  1  -1.178844  0  -0.35631  -0.615266  0  2.294925  0
O  O100  1  0.05252782  0.77898740  0.73433390  1  -1.184038  0  -0.360302  -0.6277  0  2.30589  0
O  O101  1  0.76435127  0.07181320  0.42506114  1  -1.178748  0  -0.356526  -0.61909  0  2.27147  0
O  O102  1  0.93263307  0.23901468  0.27302805  1  -1.187536  0  -0.361947  -0.634174  0  2.313207  0
O  O103  1  0.23944649  0.93082343  0.56503815  1  -1.187939  0  -0.351833  -0.612244  0  2.258812  0
O  O104  1  0.24179357  0.76525984  0.42616836  1  -1.180029  0  -0.351071  -0.614861  0  2.247462  0
O  O105  1  0.92398565  0.07053635  0.74384761  1  -1.176995  0  -0.350989  -0.615109  0  2.247086  0
O  O106  1  0.76179936  0.24664962  0.56723979  1  -1.169897  0  -0.352329  -0.614867  0  2.263578  0
O  O107  1  0.06679726  0.93056036  0.26192765  1  -1.181808  0  -0.353342  -0.613591  0  2.265537  0
O  O108  1  0.06352769  0.93366444  0.73608946  1  -1.178186  0  -0.36285  -0.619864  0  2.329385  0
O  O109  1  0.76524045  0.24343436  0.42874262  1  -1.173511  0  -0.359794  -0.617324  0  2.263106  0
O  O110  1  0.92940090  0.06991746  0.26479252  1  -1.184847  0  -0.35903  -0.613574  0  2.264071  0
O  O111  1  0.23328239  0.77086580  0.56568059  1  -1.16876  0  -0.364443  -0.620279  0  2.32766  0
O  O112  1  0.91911489  0.77981158  0.72520759  1  -1.177166  0  -0.378101  -0.633727  0  2.314912  0
O  O113  1  0.23718841  0.06585591  0.43196299  1  -1.178902  0  -0.36585  -0.616757  0  2.342836  0
O  O114  1  0.07341699  0.23138614  0.27429382  1  -1.176458  0  -0.375857  -0.631106  0  2.309302  0
O  O115  1  0.76222879  0.93788280  0.55967650  1  -1.17421  0  -0.359834  -0.611166  0  2.275744  0
O  O116  1  0.75861534  0.07723354  0.73839002  1  -1.182271  0  -0.358527  -0.613953  0  2.245605  0
O  O117  1  0.06739795  0.76964708  0.41900808  1  -1.175056  0  -0.356399  -0.60957  0  2.245826  0
O  O118  1  0.24189328  0.92375221  0.26694948  1  -1.164851  0  -0.3616  -0.617207  0  2.309447  0
O  O119  1  0.92487214  0.24093854  0.57395722  1  -1.175751  0  -0.361094  -0.617044  0  2.307113  0
O  O120  1  0.81525047  0.06827994  0.55796856  1  -1.247426  0  -0.693046  -1.06907  0  2.353744  0
O  O121  1  0.05737604  0.06284100  0.56320010  1  -1.231768  0  -0.692926  -1.067654  0  2.349016  0
O  O122  1  0.06243809  0.05921516  0.32054302  1  -1.242012  0  -0.693496  -1.066725  0  2.357299  0
O  O123  1  0.05686731  0.82542409  0.55379038  1  -1.242965  0  -0.694388  -1.069313  0  2.358639  0
O  O124  1  0.13236277  0.95669557  0.45528711  1  -1.200385  0  -0.788706  -1.146956  0  2.117594  0
O  O125  1  0.95461740  0.96052224  0.45119444  1  -1.201383  0  -0.788908  -1.148134  0  2.117351  0
O  O126  1  0.95444297  0.13509124  0.45917580  1  -1.192263  0  -0.790981  -1.14608  0  2.130283  0
O  O127  1  0.95023430  0.96372826  0.62996033  1  -1.195893  0  -0.791865  -1.148114  0  2.13263  0
