# generated using pymatgen
data_AlH8C15NO9
_symmetry_space_group_name_H-M   'P 1'
_cell_length_a   6.59336550
_cell_length_b   10.97187822
_cell_length_c   16.98938954
_cell_angle_alpha   84.92163796
_cell_angle_beta   81.18459341
_cell_angle_gamma   74.23068665
_symmetry_Int_Tables_number   1
_chemical_formula_structural   AlH8C15NO9
_chemical_formula_sum   'Al2 H16 C30 N2 O18'
_cell_volume   1167.39079679
_cell_formula_units_Z   2
loop_
 _symmetry_equiv_pos_site_id
 _symmetry_equiv_pos_as_xyz
  1  'x, y, z'
loop_
 _atom_site_type_symbol
 _atom_site_label
 _atom_site_symmetry_multiplicity
 _atom_site_fract_x
 _atom_site_fract_y
 _atom_site_fract_z
 _atom_site_occupancy
 _atom_site_pbe_bader_charge
 _atom_site_pbe_bader_spin_density
 _atom_site_pbe_cm5_charge
 _atom_site_pbe_ddec_charge
 _atom_site_pbe_ddec_spin_density
 _atom_site_pbe_ddec_sum_bond_order
 _atom_site_pbe_magmom
Al  Al0  1  0.49221268  0.49370623  0.50166800  1  2.500374  0  0.389425  1.624439  0  2.585469  0
Al  Al1  1  0.99816024  0.49074216  0.50017428  1  2.496998  0  0.389138  1.61897  0  2.595299  0
H  H2  1  0.19353842  0.64271717  0.44822695  1  0.672385  0  0.333796  0.422679  0  0.897162  0
H  H3  1  0.81135137  0.33441174  0.50720812  1  0.644458  0  0.343385  0.401683  0  0.898313  0
H  H4  1  0.81008068  0.54842130  0.74013738  1  0.104616  0  0.110235  0.112967  0  0.990481  0
H  H5  1  0.75283035  0.54700982  0.88976971  1  0.113091  0  0.108115  0.10903  0  1.0169  0
H  H6  1  0.42548489  0.39111367  0.89256945  1  0.075702  0  0.112837  0.116696  0  0.98596  0
H  H7  1  0.48475541  0.39957390  0.74284740  1  0.09202  0  0.105971  0.111259  0  1.023704  0
H  H8  1  0.54334678  0.58601547  0.11270813  1  0.084804  0  0.111108  0.116604  0  0.989126  0
H  H9  1  0.21137596  0.40858260  0.11030254  1  0.133746  0  0.10846  0.109872  0  1.015589  0
H  H10  1  0.16576445  0.41177767  0.25991180  1  0.109176  0  0.107184  0.11589  0  1.007663  0
H  H11  1  0.49648090  0.58599946  0.26302846  1  0.129594  0  0.110471  0.12194  0  0.992348  0
H  H12  1  0.87844619  0.76972177  0.60771801  1  0.091704  0  0.116669  0.127478  0  1.008279  0
H  H13  1  0.58607414  0.23781015  0.60143894  1  0.075441  0  0.115493  0.110066  0  1.060479  0
H  H14  1  0.44935865  0.18556774  0.33963644  1  0.638165  0  0.345794  0.382673  0  0.855186  0
H  H15  1  0.56583793  0.84902505  0.33038518  1  0.615308  0  0.349711  0.383514  0  0.847265  0
H  H16  1  0.89844903  0.80463921  0.76662445  1  0.637218  0  0.343858  0.378717  0  0.862199  0
H  H17  1  0.81723748  0.31319486  0.63340676  1  0.639152  0  0.317938  0.366422  0  0.933234  0
C  C18  1  0.63044213  0.71557350  0.51527554  1  1.58851  0  0.278338  0.644217  0  4.0982  0
C  C19  1  0.80453247  0.50097732  0.35788611  1  1.523363  0  0.262899  0.631945  0  4.107497  0
C  C20  1  0.36718979  0.26559559  0.48927524  1  1.596617  0  0.266951  0.630058  0  4.134305  0
C  C21  1  0.18207369  0.47820391  0.64455124  1  1.484033  0  0.270471  0.640194  0  4.076107  0
C  C22  1  0.15069981  0.47554065  0.73286850  1  0.020752  0  -0.008498  -0.039453  0  3.958198  0
C  C23  1  0.94373572  0.51623935  0.77423224  1  -0.02632  0  -0.074835  -0.068629  0  3.969561  0
C  C24  1  0.91134570  0.51471244  0.85670501  1  -0.071366  0  -0.079865  -0.14119  0  3.933041  0
C  C25  1  0.08713001  0.46940127  0.89911311  1  0.431589  0  0.097021  0.182136  0  4.025812  0
C  C26  1  0.29317655  0.42700343  0.85802336  1  -0.066201  0  -0.069266  -0.126629  0  3.919512  0
C  C27  1  0.32527169  0.43130334  0.77513850  1  0.073354  0  -0.07379  -0.067426  0  3.937233  0
C  C28  1  0.67729579  0.54770190  0.14617204  1  -0.04714  0  -0.078731  -0.142768  0  3.947159  0
C  C29  1  0.87946222  0.49829540  0.10358799  1  0.30806  0  0.092432  0.177115  0  4.034664  0
C  C30  1  0.05689648  0.44809144  0.14449179  1  -0.022552  0  -0.081097  -0.139374  0  3.940422  0
C  C31  1  0.03144396  0.45002396  0.22683749  1  -0.038973  0  -0.077391  -0.07121  0  3.960058  0
C  C32  1  0.82919739  0.49976223  0.26962750  1  -0.043906  0  -0.016317  -0.047216  0  3.968026  0
C  C33  1  0.65173548  0.54769893  0.22897417  1  -0.012151  0  -0.0799  -0.082927  0  3.967464  0
C  C34  1  0.56570695  0.85784403  0.51083279  1  0.025874  0  0.015101  -0.062409  0  3.860359  0
C  C35  1  0.65760150  0.92903300  0.55502720  1  0.061627  0  0.023213  0.101192  0  3.907439  0
C  C36  1  0.41693900  0.91908764  0.46058695  1  -0.029736  0  -0.000862  -0.093092  0  3.974238  0
C  C37  1  0.81519256  0.87234421  0.60535341  1  -0.00522  0  -0.069688  -0.131726  0  3.886058  0
C  C38  1  0.89530615  0.94521730  0.64857399  1  -0.028319  0  0.001676  -0.048367  0  3.958831  0
C  C39  1  0.43771998  0.12409657  0.49622428  1  -0.043052  0  0.00422  -0.083301  0  3.929832  0
C  C40  1  0.35828132  0.05331302  0.45089282  1  0.062161  0  -0.00951  -0.10597  0  4.01463  0
C  C41  1  0.58422008  0.06431951  0.55004388  1  0.091893  0  0.014973  0.087066  0  3.932297  0
C  C42  1  0.65818534  0.13619202  0.59937766  1  0.032536  0  -0.074388  -0.134319  0  3.920779  0
C  C43  1  0.81279921  0.07988726  0.64684477  1  -0.045294  0  -0.004434  -0.052355  0  3.980263  0
C  C44  1  0.21522075  0.11839394  0.39007911  1  1.53686  0  0.230521  0.568495  0  4.137391  0
C  C45  1  0.32461881  0.84658783  0.41033773  1  1.553947  0  0.249413  0.591003  0  4.098785  0
C  C46  1  0.08282690  0.88180560  0.69175194  1  1.556521  0  0.236589  0.589955  0  4.126391  0
C  C47  1  0.87674159  0.15512630  0.70371970  1  1.532224  0  0.230888  0.569938  0  4.122903  0
N  N48  1  0.07433885  0.46300589  0.98292437  1  -0.531694  0  -0.143186  -0.130668  0  3.279272  0
N  N49  1  0.88860504  0.50389283  0.01969779  1  -0.429351  0  -0.14741  -0.137718  0  3.266146  0
O  O50  1  0.48348668  0.65909544  0.53099706  1  -1.250928  0  -0.22166  -0.562564  0  2.329452  0
O  O51  1  0.97338996  0.47558961  0.39110859  1  -1.25107  0  -0.239952  -0.592577  0  2.352345  0
O  O52  1  0.16860021  0.31607043  0.50234477  1  -1.25111  0  -0.222957  -0.567613  0  2.360379  0
O  O53  1  0.37302966  0.45384754  0.60817617  1  -1.27212  0  -0.242331  -0.607204  0  2.353766  0
O  O54  1  0.51134767  0.32393761  0.47224478  1  -1.255853  0  -0.230738  -0.577878  0  2.368229  0
O  O55  1  0.01583355  0.50289025  0.60981029  1  -1.264089  0  -0.23572  -0.589237  0  2.364584  0
O  O56  1  0.82705984  0.66184789  0.49995579  1  -1.258565  0  -0.219009  -0.572163  0  2.393681  0
O  O57  1  0.61569351  0.52860971  0.39529527  1  -1.270914  0  -0.243816  -0.613765  0  2.39329  0
O  O58  1  0.22978461  0.55409357  0.46847472  1  -1.47677  0  -0.455753  -0.999738  0  2.214826  0
O  O59  1  0.76702340  0.41589044  0.53239723  1  -1.441022  0  -0.441654  -0.956108  0  2.172734  0
O  O60  1  0.30348374  0.18973451  0.33186445  1  -1.115822  0  -0.318899  -0.45831  0  2.222171  0
O  O61  1  0.03625616  0.10868994  0.38963993  1  -1.099836  0  -0.27049  -0.428926  0  2.05689  0
O  O62  1  0.43471404  0.82162716  0.33652720  1  -1.088227  0  -0.313381  -0.452423  0  2.216825  0
O  O63  1  0.16152685  0.81392757  0.43048959  1  -1.117568  0  -0.242591  -0.422918  0  2.166935  0
O  O64  1  0.05022819  0.79914590  0.75350614  1  -1.123047  0  -0.326852  -0.468754  0  2.240006  0
O  O65  1  0.25961992  0.89597964  0.66928674  1  -1.113267  0  -0.274071  -0.451972  0  2.101824  0
O  O66  1  0.85550642  0.28036932  0.68689064  1  -1.142621  0  -0.326672  -0.467532  0  2.302138  0
O  O67  1  0.93972226  0.10582950  0.76589230  1  -1.099767  0  -0.278577  -0.447786  0  2.053057  0
