# generated using pymatgen
data_Zn2H20C27N7O8F3
_symmetry_space_group_name_H-M   'P 1'
_cell_length_a   9.79621177
_cell_length_b   11.10235262
_cell_length_c   22.21479722
_cell_angle_alpha   89.26513443
_cell_angle_beta   89.68027537
_cell_angle_gamma   91.74697995
_symmetry_Int_Tables_number   1
_chemical_formula_structural   Zn2H20C27N7O8F3
_chemical_formula_sum   'Zn4 H40 C54 N14 O16 F6'
_cell_volume   2414.73876612
_cell_formula_units_Z   2
loop_
 _symmetry_equiv_pos_site_id
 _symmetry_equiv_pos_as_xyz
  1  'x, y, z'
loop_
 _atom_site_type_symbol
 _atom_site_label
 _atom_site_symmetry_multiplicity
 _atom_site_fract_x
 _atom_site_fract_y
 _atom_site_fract_z
 _atom_site_occupancy
 _atom_site_pbe_bader_charge
 _atom_site_pbe_bader_spin_density
 _atom_site_pbe_cm5_charge
 _atom_site_pbe_ddec_charge
 _atom_site_pbe_ddec_spin_density
 _atom_site_pbe_ddec_sum_bond_order
 _atom_site_pbe_magmom
Zn  Zn0  1  0.64627764  0.50698164  0.49598995  1  1.283615  0  0.677072  0.830932  0  2.402511  0
Zn  Zn1  1  0.35624338  0.49823140  0.50290808  1  1.277059  0  0.673536  0.831646  0  2.356149  0
Zn  Zn2  1  0.35583650  0.50613112  0.99281185  1  1.275678  0  0.669844  0.825137  0  2.399013  0
Zn  Zn3  1  0.64456587  0.51681041  0.99752471  1  1.281825  0  0.672309  0.823145  0  2.378595  0
H  H4  1  0.12302410  0.59814869  0.63415251  1  0.083059  0  0.099286  0.119039  0  0.985213  0
H  H5  1  0.14141015  0.72452581  0.58396362  1  0.078898  0  0.098941  0.115766  0  1.015087  0
H  H6  1  0.88441822  0.73686954  0.57901260  1  0.084804  0  0.095896  0.112954  0  1.007335  0
H  H7  1  0.86691513  0.60897710  0.62849120  1  0.087876  0  0.099526  0.120845  0  0.985091  0
H  H8  1  0.17984490  0.87270429  0.46200848  1  0.037942  0  0.086633  0.091623  0  0.992198  0
H  H9  1  0.17877533  0.89130387  0.54173127  1  0.023646  0  0.08976  0.094563  0  1.012308  0
H  H10  1  0.17669062  0.11550565  0.52746014  1  0.039686  0  0.089112  0.098724  0  0.986819  0
H  H11  1  0.18722982  0.09615460  0.44779561  1  0.024249  0  0.082538  0.080965  0  1.014747  0
H  H12  1  0.80568249  0.44571835  0.18499675  1  0.044331  0  0.07803  0.08254  0  1.0501  0
H  H13  1  0.81023526  0.60482216  0.19376083  1  0.008526  0  0.089633  0.098407  0  0.982318  0
H  H14  1  0.81475298  0.57388959  0.30664788  1  0.044716  0  0.086863  0.094002  0  0.99293  0
H  H15  1  0.79759563  0.41487090  0.29541532  1  0.001588  0  0.083829  0.083333  0  1.013953  0
H  H16  1  0.86442868  0.61729193  0.86731103  1  0.09057  0  0.102178  0.124294  0  0.981569  0
H  H17  1  0.88787291  0.74646883  0.91382537  1  0.04371  0  0.099997  0.113542  0  1.004028  0
H  H18  1  0.14287136  0.72901598  0.90519702  1  0.088117  0  0.099559  0.120857  0  1.011713  0
H  H19  1  0.11960345  0.59975580  0.85892386  1  0.074406  0  0.101205  0.122399  0  0.98155  0
H  H20  1  0.80808387  0.89212938  0.03336436  1  0.033831  0  0.087905  0.095384  0  0.993197  0
H  H21  1  0.81532748  0.91590245  0.95367842  1  0.039905  0  0.087856  0.091301  0  1.010284  0
H  H22  1  0.81731127  0.13986967  0.96824281  1  0.058512  0  0.087079  0.097933  0  0.998392  0
H  H23  1  0.80566906  0.11511309  0.04799072  1  -0.008998  0  0.078934  0.072763  0  1.021622  0
H  H24  1  0.76567648  0.40337306  0.40073318  1  0.524481  0  0.30446  0.324565  0  0.980624  0
H  H25  1  0.92190524  0.36105726  0.37428058  1  0.451827  0  0.310649  0.295207  0  0.958657  0
H  H26  1  0.23223301  0.31722679  0.44018196  1  0.530596  0  0.305668  0.326504  0  0.978071  0
H  H27  1  0.07537125  0.27091564  0.41325792  1  0.440372  0  0.3127  0.298458  0  0.949589  0
H  H28  1  0.74733662  0.21448043  0.50906234  1  0.490616  0  0.288095  0.300491  0  1.002783  0
H  H29  1  0.81899687  0.08202235  0.53081358  1  0.427909  0  0.297703  0.286577  0  0.961042  0
H  H30  1  0.74306300  0.79634934  0.48927236  1  0.481072  0  0.291422  0.299862  0  1.002491  0
H  H31  1  0.82357240  0.93419700  0.47621513  1  0.407004  0  0.295261  0.280638  0  0.973714  0
H  H32  1  0.24751723  0.54399349  0.35366540  1  0.503418  0  0.287688  0.300594  0  1.00138  0
H  H33  1  0.17620263  0.59825923  0.28861003  1  0.420841  0  0.295664  0.282669  0  0.966894  0
H  H34  1  0.24347547  0.54594062  0.14232738  1  0.478759  0  0.285637  0.295996  0  1.013495  0
H  H35  1  0.15902532  0.50705207  0.20892707  1  0.428288  0  0.292438  0.277332  0  0.980699  0
H  H36  1  0.23340149  0.33994790  0.06837387  1  0.518321  0  0.31404  0.334922  0  0.95655  0
H  H37  1  0.08204883  0.32960458  0.11118222  1  0.450785  0  0.320342  0.313388  0  0.937941  0
H  H38  1  0.75373630  0.39043066  0.08631506  1  0.501237  0  0.308839  0.326722  0  0.956829  0
H  H39  1  0.87745124  0.28544947  0.08447465  1  0.448199  0  0.309659  0.296611  0  0.953739  0
H  H40  1  0.24625946  0.21338618  0.98781743  1  0.485749  0  0.290588  0.295514  0  0.999355  0
H  H41  1  0.17662534  0.08191356  0.96023546  1  0.423807  0  0.298961  0.288311  0  0.958335  0
H  H42  1  0.24756912  0.79310673  0.98670048  1  0.503215  0  0.290505  0.294477  0  1.008708  0
H  H43  1  0.16729449  0.92150058  0.00890375  1  0.42913  0  0.297089  0.283436  0  0.965896  0
C  C44  1  0.49397735  0.73579986  0.50122320  1  1.477246  0  0.218194  0.614872  0  4.147461  0
C  C45  1  0.51816553  0.48469640  0.61535248  1  1.66837  0  0.216077  0.610867  0  4.206359  0
C  C46  1  0.49951231  0.26487602  0.49446325  1  1.480994  0  0.217913  0.617508  0  4.136569  0
C  C47  1  0.49382289  0.50877722  0.37911754  1  1.498057  0  0.21637  0.615138  0  4.140259  0
C  C48  1  0.49726375  0.74516863  0.98660657  1  1.548391  0  0.216131  0.60957  0  4.146402  0
C  C49  1  0.51394015  0.48192352  0.87991338  1  1.654998  0  0.21624  0.612333  0  4.201421  0
C  C50  1  0.49730133  0.27290427  0.00450460  1  1.543699  0  0.213143  0.610405  0  4.143695  0
C  C51  1  0.49178596  0.52790857  0.11444403  1  1.465641  0  0.214123  0.612405  0  4.143857  0
C  C52  1  0.07176169  0.55617623  0.53960742  1  0.487025  0  0.09984  0.150207  0  3.967079  0
C  C53  1  0.92743204  0.43719967  0.45634197  1  1.062389  0  0.236166  0.317505  0  4.017741  0
C  C54  1  0.93258324  0.56286367  0.53639177  1  0.459085  0  0.09692  0.144052  0  3.96128  0
C  C55  1  0.07317209  0.42090217  0.46374272  1  1.041054  0  0.236781  0.316362  0  4.017421  0
C  C56  1  0.08442955  0.63950300  0.59269469  1  -0.036337  0  -0.146294  -0.218604  0  3.850962  0
C  C57  1  0.92265773  0.64688131  0.58931740  1  -0.039997  0  -0.147429  -0.212503  0  3.843537  0
C  C58  1  0.49923132  0.86934356  0.50099831  1  0.069283  0  -0.030694  -0.18856  0  3.977881  0
C  C59  1  0.50240027  0.13177510  0.49554833  1  0.076577  0  -0.033751  -0.196591  0  3.987162  0
C  C60  1  0.37974997  0.93606134  0.49966907  1  0.017632  0  -0.025669  0.039137  0  3.967191  0
C  C61  1  0.62525437  0.06756818  0.50016273  1  0.403786  0  0.095503  0.191422  0  4.003875  0
C  C62  1  0.38128703  0.06042763  0.49468459  1  -0.038184  0  -0.029019  0.032652  0  3.968005  0
C  C63  1  0.62378263  0.93807805  0.49940209  1  0.410427  0  0.095168  0.186438  0  4.008305  0
C  C64  1  0.22529557  0.92415714  0.49925391  1  -0.044563  0  -0.156527  -0.188485  0  3.905994  0
C  C65  1  0.22697646  0.06582220  0.49147689  1  -0.013506  0  -0.159902  -0.192059  0  3.916612  0
C  C66  1  0.51771193  0.46918021  0.81223266  1  0.083853  0  -0.015326  -0.137853  0  3.941711  0
C  C67  1  0.59716224  0.38410736  0.78076128  1  0.07848  0  -0.009197  -0.019578  0  4.009104  0
C  C68  1  0.44291669  0.54904489  0.77903084  1  0.547089  0  0.09722  0.160138  0  4.083948  0
C  C69  1  0.67276692  0.29512789  0.81122403  1  0.552241  0  0.087736  0.125232  0  4.079113  0
C  C70  1  0.75262530  0.21545833  0.78080238  1  0.560274  0  0.081248  0.074467  0  4.155659  0
C  C71  1  0.52119285  0.47147178  0.68324631  1  0.070934  0  -0.014328  -0.135597  0  3.937585  0
C  C72  1  0.44435706  0.54995168  0.71570855  1  0.439913  0  0.097432  0.159707  0  4.086181  0
C  C73  1  0.59964950  0.38575261  0.71554550  1  0.017739  0  -0.008773  -0.019192  0  4.007633  0
C  C74  1  0.67898179  0.29900173  0.68616016  1  0.580889  0  0.08801  0.126499  0  4.078672  0
C  C75  1  0.75599834  0.21765853  0.71753464  1  0.589896  0  0.080643  0.075848  0  4.155702  0
C  C76  1  0.48777939  0.53067425  0.18111203  1  0.042674  0  -0.035307  -0.196352  0  3.982902  0
C  C77  1  0.48768037  0.51470944  0.31240284  1  0.054206  0  -0.03356  -0.191934  0  3.979611  0
C  C78  1  0.60766744  0.52101398  0.21509071  1  0.032097  0  -0.027936  0.038628  0  3.966975  0
C  C79  1  0.36503717  0.53063894  0.27988191  1  0.47194  0  0.093647  0.187678  0  4.004051  0
C  C80  1  0.60717966  0.51081826  0.27721187  1  -0.052763  0  -0.029975  0.030752  0  3.973498  0
C  C81  1  0.36479784  0.53617141  0.21506165  1  0.38978  0  0.093718  0.189263  0  4.011627  0
C  C82  1  0.76202130  0.51978003  0.21023205  1  -0.01331  0  -0.16339  -0.19077  0  3.906864  0
C  C83  1  0.76118281  0.50325756  0.28081907  1  -0.022953  0  -0.161308  -0.192736  0  3.921948  0
C  C84  1  0.93226522  0.57282668  0.95928179  1  0.466778  0  0.100617  0.146656  0  3.958485  0
C  C85  1  0.07010770  0.43074398  0.03392610  1  1.050929  0  0.239602  0.323874  0  4.028109  0
C  C86  1  0.07113971  0.56284896  0.95488910  1  0.494829  0  0.103294  0.154945  0  3.956801  0
C  C87  1  0.92261689  0.43950039  0.03768738  1  1.025298  0  0.237733  0.315012  0  3.999441  0
C  C88  1  0.92288013  0.65538376  0.90491750  1  -0.007271  0  -0.144243  -0.211339  0  3.844726  0
C  C89  1  0.08407023  0.64418381  0.89973395  1  -0.033082  0  -0.146116  -0.221815  0  3.835672  0
C  C90  1  0.49247576  0.87842385  0.98827448  1  1.1e-05  0  -0.030132  -0.187152  0  3.975406  0
C  C91  1  0.49226125  0.13987934  0.99996437  1  0.012033  0  -0.034127  -0.194087  0  3.984707  0
C  C92  1  0.61245938  0.94991323  0.99349383  1  0.01868  0  -0.024353  0.043172  0  3.961304  0
C  C93  1  0.36893043  0.07108355  0.99261609  1  0.43267  0  0.093809  0.187224  0  4.003385  0
C  C94  1  0.61229611  0.07367258  0.99979904  1  -0.064854  0  -0.027883  0.035785  0  3.965361  0
C  C95  1  0.36890448  0.94190555  0.98847679  1  0.38103  0  0.095811  0.187506  0  4.007235  0
C  C96  1  0.76664314  0.94438692  0.99567436  1  -0.017249  0  -0.157294  -0.190889  0  3.904383  0
C  C97  1  0.76646471  0.08559802  0.00401832  1  -0.010832  0  -0.15931  -0.188379  0  3.912435  0
N  N98  1  0.14659833  0.48584211  0.50375621  1  -1.239412  0  -0.320118  -0.307659  0  3.466712  0
N  N99  1  0.85610229  0.50571544  0.49431240  1  -1.243827  0  -0.323506  -0.314099  0  3.467585  0
N  N100  1  0.85403410  0.51194826  0.00036871  1  -1.231564  0  -0.312018  -0.290312  0  3.471453  0
N  N101  1  0.14515830  0.49411403  0.99237923  1  -1.226142  0  -0.323005  -0.31843  0  3.457039  0
N  N102  1  0.86325104  0.37782950  0.41083673  1  -1.261397  0  -0.580105  -0.615177  0  3.344581  0
N  N103  1  0.13538505  0.34077549  0.42762297  1  -1.25948  0  -0.577031  -0.6116  0  3.335901  0
N  N104  1  0.75351140  0.12388615  0.50254813  1  -1.2342  0  -0.611336  -0.626942  0  3.341987  0
N  N105  1  0.75068358  0.88575044  0.49967019  1  -1.20877  0  -0.605628  -0.614284  0  3.338819  0
N  N106  1  0.23848436  0.53725079  0.30794814  1  -1.248471  0  -0.61136  -0.623219  0  3.339856  0
N  N107  1  0.23913495  0.55113142  0.18821109  1  -1.259163  0  -0.609635  -0.617402  0  3.352918  0
N  N108  1  0.13141060  0.35509371  0.07280477  1  -1.25369  0  -0.573838  -0.611481  0  3.369726  0
N  N109  1  0.85592997  0.37454959  0.08248305  1  -1.237877  0  -0.581366  -0.625116  0  3.335322  0
N  N110  1  0.24104198  0.12171478  0.99037196  1  -1.237951  0  -0.610757  -0.619467  0  3.34139  0
N  N111  1  0.24157970  0.88466716  0.98342938  1  -1.257937  0  -0.604473  -0.613565  0  3.345468  0
O  O112  1  0.60480426  0.68224203  0.48804283  1  -1.17429  0  -0.317422  -0.552274  0  2.387472  0
O  O113  1  0.38080034  0.68115423  0.51355725  1  -1.159627  0  -0.308737  -0.529653  0  2.293074  0
O  O114  1  0.40363381  0.46089041  0.59119928  1  -1.146946  0  -0.311403  -0.53539  0  2.305686  0
O  O115  1  0.62738684  0.52143182  0.58962902  1  -1.152803  0  -0.305099  -0.534555  0  2.322001  0
O  O116  1  0.38476183  0.31445200  0.48576236  1  -1.183742  0  -0.31203  -0.55549  0  2.347009  0
O  O117  1  0.61106662  0.32544533  0.50308113  1  -1.175675  0  -0.31049  -0.547022  0  2.404024  0
O  O118  1  0.60980741  0.48792591  0.40288849  1  -1.184646  0  -0.314447  -0.558205  0  2.34446  0
O  O119  1  0.38535012  0.52574144  0.40998027  1  -1.179222  0  -0.310219  -0.547772  0  2.340949  0
O  O120  1  0.38588225  0.68462814  0.97570643  1  -1.171577  0  -0.315843  -0.548954  0  2.358209  0
O  O121  1  0.61183930  0.69780244  0.99677058  1  -1.159991  0  -0.310688  -0.528418  0  2.302705  0
O  O122  1  0.62393936  0.51720773  0.90460440  1  -1.152009  0  -0.303705  -0.531609  0  2.327315  0
O  O123  1  0.39904092  0.46022294  0.90496521  1  -1.157042  0  -0.31474  -0.539602  0  2.301935  0
O  O124  1  0.61180836  0.32830198  0.99768420  1  -1.162212  0  -0.307757  -0.539344  0  2.331436  0
O  O125  1  0.38436021  0.32689525  0.01481957  1  -1.193203  0  -0.322477  -0.576895  0  2.382069  0
O  O126  1  0.38165840  0.54399924  0.08469451  1  -1.170847  0  -0.315736  -0.556403  0  2.334961  0
O  O127  1  0.60696215  0.50741906  0.08959274  1  -1.181336  0  -0.314845  -0.553272  0  2.339509  0
F  F128  1  0.36991516  0.63412913  0.68737087  1  -0.620966  0  -0.08491  -0.107652  0  1.372505  0
F  F129  1  0.36796608  0.63298666  0.80660869  1  -0.622684  0  -0.085325  -0.107969  0  1.373726  0
F  F130  1  0.67990349  0.29115953  0.62552243  1  -0.61713  0  -0.07669  -0.083016  0  1.448855  0
F  F131  1  0.83197214  0.13767239  0.68807809  1  -0.610109  0  -0.091409  -0.096542  0  1.35821  0
F  F132  1  0.82508384  0.13308331  0.81103099  1  -0.613388  0  -0.090148  -0.094685  0  1.357598  0
F  F133  1  0.66672856  0.28342371  0.87178317  1  -0.617871  0  -0.073879  -0.079677  0  1.43988  0
