# generated using pymatgen
data_Mg3H54(C22O5)4
_symmetry_space_group_name_H-M   'P 1'
_cell_length_a   11.22147251
_cell_length_b   14.03257180
_cell_length_c   16.22223098
_cell_angle_alpha   80.43446387
_cell_angle_beta   75.61537201
_cell_angle_gamma   77.61080294
_symmetry_Int_Tables_number   1
_chemical_formula_structural   Mg3H54(C22O5)4
_chemical_formula_sum   'Mg3 H54 C88 O20'
_cell_volume   2399.48644509
_cell_formula_units_Z   1
loop_
 _symmetry_equiv_pos_site_id
 _symmetry_equiv_pos_as_xyz
  1  'x, y, z'
loop_
 _atom_site_type_symbol
 _atom_site_label
 _atom_site_symmetry_multiplicity
 _atom_site_fract_x
 _atom_site_fract_y
 _atom_site_fract_z
 _atom_site_occupancy
 _atom_site_pbe_bader_charge
 _atom_site_pbe_bader_spin_density
 _atom_site_pbe_cm5_charge
 _atom_site_pbe_ddec_charge
 _atom_site_pbe_ddec_spin_density
 _atom_site_pbe_ddec_sum_bond_order
 _atom_site_pbe_magmom
Mg  Mg0  1  0.34024345  0.42368944  0.79071446  1  1.694237  0  0.823489  1.419637  0  1.393096  0
Mg  Mg1  1  0.67416454  0.39377388  0.72617398  1  1.699397  0  0.786986  1.373009  0  1.338585  0
Mg  Mg2  1  0.00779035  0.44980620  0.86134940  1  1.693252  0  0.804905  1.385571  0  1.354731  0
H  H3  1  0.49661086  0.35289922  0.62249679  1  0.666065  0  0.316797  0.357211  0  0.974054  0
H  H4  1  0.08838677  0.72804836  0.65020492  1  0.60403  0  0.347676  0.384002  0  0.864805  0
H  H5  1  0.05243736  0.97001730  0.44210675  1  0.077243  0  0.097396  0.097569  0  1.030036  0
H  H6  1  0.47651351  0.62300120  0.23113394  1  0.080946  0  0.105043  0.11421  0  0.996503  0
H  H7  1  0.80208626  0.12558647  0.23658697  1  0.085078  0  0.105008  0.112092  0  1.000247  0
H  H8  1  0.58591072  0.69043236  0.34406151  1  0.072874  0  0.095131  0.092276  0  1.068194  0
H  H9  1  0.10743372  0.96428531  0.01502239  1  0.101958  0  0.104417  0.107982  0  1.009433  0
H  H10  1  0.23507248  0.83855191  0.43936657  1  0.064424  0  0.096979  0.097254  0  1.021311  0
H  H11  1  0.05940149  0.14276868  0.00244485  1  0.08731  0  0.104389  0.108282  0  1.011974  0
H  H12  1  0.62307017  0.10665703  0.01887507  1  0.086704  0  0.104023  0.105757  0  1.020357  0
H  H13  1  0.72669861  0.03010086  0.13896827  1  0.077027  0  0.093858  0.094478  0  1.043791  0
H  H14  1  0.28549530  0.82779791  0.01459715  1  0.105555  0  0.107283  0.112647  0  1.000065  0
H  H15  1  0.95595740  0.21827483  0.88394742  1  0.09523  0  0.108203  0.108173  0  1.016757  0
H  H16  1  0.60286251  0.70830501  0.04136985  1  0.070028  0  0.096977  0.101438  0  1.038378  0
H  H17  1  0.20457654  0.65338798  0.44674232  1  0.044087  0  0.097694  0.099932  0  1.019045  0
H  H18  1  0.23754012  0.63156909  0.09326883  1  0.110923  0  0.102291  0.10503  0  1.003111  0
H  H19  1  0.92184970  0.38697917  0.70699791  1  0.639976  0  0.303073  0.397376  0  0.932145  0
H  H20  1  0.85410454  0.49347504  0.69976164  1  0.621036  0  0.304066  0.379301  0  0.958494  0
H  H21  1  0.54472828  0.26774243  0.82975366  1  0.639969  0  0.293202  0.38822  0  0.961778  0
H  H22  1  0.49916850  0.27602899  0.74070479  1  0.594039  0  0.326214  0.400357  0  0.893422  0
H  H23  1  0.64505744  0.59719146  0.47643005  1  0.080765  0  0.10589  0.110178  0  1.001224  0
H  H24  1  0.66897778  0.61880482  0.91359532  1  0.087963  0  0.105953  0.109737  0  1.003243  0
H  H25  1  0.26501776  0.55896967  0.57896375  1  0.080496  0  0.100292  0.103333  0  1.021303  0
H  H26  1  0.30096720  0.54718140  0.96237479  1  0.136754  0  0.110092  0.118213  0  1.027783  0
H  H27  1  0.60112153  0.87265721  0.13618665  1  0.079653  0  0.104193  0.110284  0  1.00343  0
H  H28  1  0.18129799  0.21948785  0.35106446  1  0.067793  0  0.106061  0.113621  0  0.996258  0
H  H29  1  0.87090250  0.73049664  0.32998552  1  0.079931  0  0.105386  0.114265  0  0.994118  0
H  H30  1  0.07280537  0.17821321  0.23883488  1  0.060496  0  0.092699  0.093036  0  1.0487  0
H  H31  1  0.57970227  0.89748213  0.55594775  1  0.08648  0  0.100707  0.104317  0  1.020159  0
H  H32  1  0.41610612  0.00384761  0.14187826  1  0.084869  0  0.106433  0.111675  0  1.004334  0
H  H33  1  0.61579377  0.72373694  0.57212938  1  0.073359  0  0.110496  0.115101  0  1.00216  0
H  H34  1  0.06299707  0.74493244  0.53588581  1  0.03768  0  0.099472  0.079267  0  1.061459  0
H  H35  1  0.95543692  0.81455890  0.42008072  1  0.085754  0  0.101868  0.106897  0  1.040457  0
H  H36  1  0.39177160  0.02455783  0.56201459  1  0.08079  0  0.102473  0.106745  0  1.006627  0
H  H37  1  0.72378037  0.65009026  0.68929551  1  0.122231  0  0.119008  0.123872  0  0.987122  0
H  H38  1  0.09594641  0.08719806  0.57448119  1  0.049663  0  0.099406  0.100552  0  1.003305  0
H  H39  1  0.46666621  0.17155642  0.13498038  1  0.079259  0  0.097953  0.098312  0  1.022416  0
H  H40  1  0.37381563  0.26453247  0.44924197  1  0.070781  0  0.104675  0.108177  0  0.990432  0
H  H41  1  0.75933639  0.46377147  0.87332811  1  0.65377  0  0.302272  0.397045  0  0.933543  0
H  H42  1  0.82486324  0.35785725  0.86343798  1  0.639215  0  0.298154  0.380423  0  0.969433  0
H  H43  1  0.15523406  0.57119007  0.75840989  1  0.628938  0  0.310267  0.394832  0  0.930746  0
H  H44  1  0.14966968  0.56878107  0.85998384  1  0.631668  0  0.292282  0.380757  0  0.973312  0
H  H45  1  0.02629429  0.27696925  0.10368850  1  0.115414  0  0.106328  0.112064  0  0.99675  0
H  H46  1  0.03671038  0.18331161  0.69922010  1  0.093039  0  0.107641  0.113133  0  0.989038  0
H  H47  1  0.41899580  0.27015096  0.00087998  1  0.133423  0  0.105887  0.116696  0  1.021107  0
H  H48  1  0.95284623  0.83746547  0.15571011  1  0.079869  0  0.092888  0.09409  0  1.061908  0
H  H49  1  0.06682905  0.75297031  0.02747288  1  0.075021  0  0.101686  0.100464  0  1.029333  0
H  H50  1  0.32110900  0.35490207  0.57684445  1  0.098485  0  0.104084  0.10866  0  1.026393  0
H  H51  1  0.68415293  0.06847672  0.37936700  1  0.063211  0  0.100644  0.103902  0  1.023639  0
H  H52  1  0.56601698  0.16946070  0.49533368  1  0.124921  0  0.10464  0.105591  0  1.027763  0
H  H53  1  0.91068286  0.23064069  0.52760464  1  0.113911  0  0.109333  0.114562  0  1.006272  0
H  H54  1  0.02894057  0.13223218  0.40950973  1  0.044381  0  0.096687  0.093099  0  1.069935  0
H  H55  1  0.77677703  0.58390567  0.06836612  1  0.113626  0  0.108914  0.115859  0  0.998642  0
H  H56  1  0.65944121  0.67072692  0.19504263  1  0.044526  0  0.094741  0.090953  0  1.053446  0
C  C57  1  0.11158758  0.93580400  0.22949052  1  -0.02694  0  0.002725  0.003091  0  3.907415  0
C  C58  1  0.35376440  0.73236135  0.30635203  1  -0.05911  0  -0.004598  0.026281  0  3.96355  0
C  C59  1  0.25731640  0.81644088  0.30652671  1  0.015758  0  -0.009749  0.024837  0  3.994075  0
C  C60  1  0.21610608  0.85649316  0.22900598  1  -0.025174  0  0.004643  0.007231  0  3.92086  0
C  C61  1  0.27588597  0.81423942  0.15145466  1  0.021165  0  -0.006024  0.025583  0  4.002476  0
C  C62  1  0.04723207  0.97466732  0.30817581  1  -0.054288  0  -0.009269  0.023421  0  3.993379  0
C  C63  1  0.95502187  0.04167098  0.15553072  1  -0.073207  0  -0.000683  0.02995  0  3.972179  0
C  C64  1  0.09761145  0.93843163  0.38270483  1  -0.076916  0  -0.094073  -0.135475  0  4.033154  0
C  C65  1  0.39022396  0.68125013  0.38669601  1  -0.00772  0  0.000662  0.090104  0  3.975125  0
C  C66  1  0.90036096  0.08124738  0.07963876  1  -0.01542  0  -0.000838  0.080777  0  3.983216  0
C  C67  1  0.37048677  0.72933241  0.15311253  1  -0.026526  0  0.00114  0.037275  0  3.974999  0
C  C68  1  0.93438337  0.04421776  0.30968775  1  0.014667  0  -0.007151  0.015993  0  3.985221  0
C  C69  1  0.40820446  0.69114740  0.22967399  1  -0.005901  0  -0.087684  -0.179875  0  3.983688  0
C  C70  1  0.06879570  0.97311723  0.15196507  1  0.019216  0  -0.001958  0.029216  0  3.992779  0
C  C71  1  0.88888100  0.07223535  0.23458950  1  -0.027708  0  -0.086112  -0.174671  0  3.97476  0
C  C72  1  0.71043690  0.22144522  0.87796667  1  1.539971  0  0.224813  0.593945  0  4.150667  0
C  C73  1  0.78132793  0.16864607  0.94421490  1  -0.024461  0  -0.022519  -0.054905  0  3.984121  0
C  C74  1  0.51456738  0.66302991  0.39582840  1  -0.087623  0  -0.091013  -0.133324  0  3.963009  0
C  C75  1  0.41615321  0.67558063  0.07643706  1  -0.039822  0  -0.007173  0.068065  0  4.017387  0
C  C76  1  0.86517767  0.09373361  0.38568037  1  -0.047886  0  0.002323  0.093803  0  3.971885  0
C  C77  1  0.13789204  0.93435264  0.07430965  1  -0.054829  0  -0.086787  -0.121551  0  4.000001  0
C  C78  1  0.19836427  0.86365634  0.38172006  1  -0.067438  0  -0.094217  -0.130344  0  4.028166  0
C  C79  1  0.96451248  0.13279565  0.00601147  1  -0.072049  0  -0.086645  -0.129775  0  3.9587  0
C  C80  1  0.71869285  0.11399508  0.01619627  1  0.003355  0  -0.082879  -0.082571  0  3.983502  0
C  C81  1  0.77690005  0.07165579  0.08313352  1  -0.065428  0  -0.095361  -0.138414  0  3.985042  0
C  C82  1  0.23651187  0.85798903  0.07416479  1  -0.093593  0  -0.08556  -0.118319  0  3.998395  0
C  C83  1  0.90549711  0.17637537  0.93933704  1  -0.029849  0  -0.07733  -0.077012  0  3.95855  0
C  C84  1  0.53739091  0.67117875  0.02519381  1  -0.051038  0  -0.096254  -0.144775  0  3.986568  0
C  C85  1  0.30036885  0.64405777  0.45449342  1  -0.011142  0  -0.096929  -0.147308  0  4.003665  0
C  C86  1  0.33202662  0.62888915  0.05373948  1  -0.076498  0  -0.08875  -0.131605  0  3.976495  0
C  C87  1  0.45806354  0.57491558  0.53775588  1  -0.015016  0  -0.02646  -0.049748  0  3.968176  0
C  C88  1  0.48827173  0.57767386  0.92907632  1  -0.007871  0  -0.019587  -0.050816  0  3.973218  0
C  C89  1  0.49257109  0.51106253  0.61537640  1  1.555764  0  0.222362  0.60057  0  4.182644  0
C  C90  1  0.66414500  0.27266600  0.58356264  1  1.506513  0  0.248349  0.611082  0  4.083619  0
C  C91  1  0.54801462  0.61136207  0.47042111  1  -0.034022  0  -0.081352  -0.080712  0  3.967433  0
C  C92  1  0.51793315  0.52742725  0.85005700  1  1.55727  0  0.233111  0.638589  0  4.160883  0
C  C93  1  0.57408555  0.62148990  0.95257062  1  -0.032217  0  -0.086549  -0.091664  0  3.976485  0
C  C94  1  0.33379572  0.59123329  0.52832980  1  -0.061289  0  -0.093413  -0.098442  0  4.005061  0
C  C95  1  0.73118225  0.20683457  0.51825830  1  -0.045565  0  -0.025348  -0.064924  0  4.011653  0
C  C96  1  0.36729658  0.58123451  0.98069882  1  -0.064695  0  -0.07725  -0.067377  0  3.947743  0
C  C97  1  0.55423264  0.91342990  0.34643592  1  -0.056712  0  0.000348  -0.000958  0  3.920791  0
C  C98  1  0.30489529  0.11179583  0.27492849  1  -0.012865  0  -0.001427  0.038035  0  3.977024  0
C  C99  1  0.40072055  0.02734678  0.27362478  1  -0.068915  0  -0.005044  0.026878  0  3.983093  0
C  C100  1  0.44533434  0.98886161  0.34992870  1  0.005461  0  0.002294  0.005147  0  3.923706  0
C  C101  1  0.38650094  0.03037811  0.42820123  1  0.014497  0  -0.012203  0.019227  0  4.008616  0
C  C102  1  0.61555360  0.87449606  0.26713343  1  -0.008523  0  -0.005861  0.025234  0  3.996633  0
C  C103  1  0.71967337  0.81340470  0.41417848  1  -0.036609  0  -0.008487  0.01389  0  3.993681  0
C  C104  1  0.55912902  0.90653694  0.19491567  1  -0.040917  0  -0.088577  -0.128463  0  4.008527  0
C  C105  1  0.27301133  0.16643183  0.19518803  1  -0.033118  0  -0.007694  0.070716  0  4.012368  0
C  C106  1  0.77791473  0.77497560  0.48787034  1  -0.020943  0  0.011845  0.101569  0  3.959328  0
C  C107  1  0.28732836  0.11222135  0.42842234  1  -0.012624  0  -0.006571  0.023884  0  3.990053  0
C  C108  1  0.73092415  0.80775897  0.26213991  1  -0.050462  0  -0.003252  0.026116  0  3.979  0
C  C109  1  0.24993117  0.15147724  0.35214820  1  -0.052154  0  -0.088638  -0.182758  0  3.99995  0
C  C110  1  0.60430611  0.88019692  0.42137897  1  0.017581  0  -0.006007  0.029375  0  4.010191  0
C  C111  1  0.78221234  0.78193469  0.33457081  1  0.013929  0  -0.087635  -0.176274  0  3.979077  0
C  C112  1  0.96268702  0.64468715  0.69108369  1  1.471398  0  0.249709  0.58162  0  4.078535  0
C  C113  1  0.89977461  0.69355015  0.62199843  1  -0.015792  0  -0.030245  -0.098284  0  4.080463  0
C  C114  1  0.14875755  0.19834851  0.18669214  1  -0.060999  0  -0.095059  -0.137869  0  3.985658  0
C  C115  1  0.24088246  0.16803155  0.50409718  1  -0.026277  0  -0.008188  0.068128  0  4.017325  0
C  C116  1  0.79765485  0.76066482  0.18364566  1  -0.04142  0  -0.006257  0.077215  0  4.003731  0
C  C117  1  0.54084284  0.92123861  0.49915342  1  -0.087991  0  -0.095534  -0.137281  0  4.030044  0
C  C118  1  0.45661880  0.97990274  0.19799184  1  -0.012286  0  -0.084546  -0.116475  0  3.999505  0
C  C119  1  0.71309583  0.72962839  0.56507120  1  0.045674  0  -0.076439  -0.118583  0  3.932216  0
C  C120  1  0.96413271  0.74083785  0.54595354  1  -0.098324  0  -0.088599  -0.105819  0  4.030086  0
C  C121  1  0.90439876  0.77939807  0.47932581  1  0.01293  0  -0.085332  -0.117046  0  3.946167  0
C  C122  1  0.43637457  0.99270887  0.50252142  1  -0.066844  0  -0.091652  -0.123257  0  4.021765  0
C  C123  1  0.77360046  0.68782997  0.63084051  1  -0.097526  0  -0.067013  -0.056038  0  3.929853  0
C  C124  1  0.14492894  0.14651190  0.57442902  1  -0.067941  0  -0.092359  -0.139551  0  3.997509  0
C  C125  1  0.37022383  0.19307571  0.12753913  1  -0.030954  0  -0.093016  -0.138608  0  3.996787  0
C  C126  1  0.30084213  0.24605042  0.50449151  1  -0.040236  0  -0.092538  -0.13576  0  3.987355  0
C  C127  1  0.21993464  0.27879703  0.04421913  1  -0.025732  0  -0.016087  -0.040261  0  3.961945  0
C  C128  1  0.17876142  0.27281421  0.64689350  1  -0.048909  0  -0.016743  -0.037263  0  3.974692  0
C  C129  1  0.19627817  0.33918194  0.96272164  1  1.581735  0  0.228671  0.635386  0  4.190069  0
C  C130  1  0.99436733  0.61241025  0.96267371  1  1.569767  0  0.219797  0.594827  0  4.182198  0
C  C131  1  0.12238935  0.25323244  0.11141665  1  -0.067893  0  -0.08535  -0.092338  0  3.990361  0
C  C132  1  0.16171041  0.32438161  0.72405805  1  1.591767  0  0.231965  0.634492  0  4.169404  0
C  C133  1  0.11200412  0.19995417  0.64487325  1  -0.053546  0  -0.084311  -0.09532  0  3.974421  0
C  C134  1  0.34405664  0.24896955  0.05316965  1  -0.09002  0  -0.083707  -0.080555  0  3.970525  0
C  C135  1  0.92777209  0.66412598  0.03957972  1  -0.018762  0  -0.019546  -0.042899  0  3.973925  0
C  C136  1  0.91359008  0.78235031  0.13646880  1  0.006776  0  -0.096476  -0.137872  0  3.971162  0
C  C137  1  0.97763379  0.73513342  0.06479225  1  -0.077049  0  -0.082426  -0.083646  0  3.979812  0
C  C138  1  0.27151344  0.29676019  0.57548031  1  -0.02055  0  -0.086793  -0.084908  0  3.981195  0
C  C139  1  0.73403846  0.10461638  0.41115652  1  -0.015358  0  -0.087404  -0.129947  0  3.957324  0
C  C140  1  0.66753535  0.16086763  0.47637762  1  -0.071218  0  -0.079859  -0.077372  0  3.966543  0
C  C141  1  0.86211816  0.19406599  0.49523225  1  -0.023154  0  -0.079795  -0.077958  0  3.971349  0
C  C142  1  0.92781471  0.13844352  0.42964283  1  -0.013034  0  -0.091948  -0.140907  0  3.980943  0
C  C143  1  0.81346722  0.64059196  0.08762226  1  -0.035394  0  -0.082623  -0.083721  0  3.978938  0
C  C144  1  0.74869231  0.68896461  0.15830835  1  -0.070022  0  -0.097782  -0.148661  0  4.001545  0
O  O145  1  0.75956585  0.28281927  0.81802292  1  -1.235477  0  -0.337629  -0.638654  0  2.244525  0
O  O146  1  0.60030010  0.20449592  0.88683132  1  -1.166061  0  -0.311983  -0.514004  0  2.191866  0
O  O147  1  0.85127701  0.42944023  0.68412009  1  -1.274938  0  -0.612335  -0.808744  0  2.017872  0
O  O148  1  0.51224795  0.31961367  0.77727824  1  -1.306149  0  -0.599686  -0.910346  0  2.148551  0
O  O149  1  0.54158443  0.29789326  0.58657087  1  -1.190859  0  -0.319106  -0.477201  0  2.339798  0
O  O150  1  0.92664389  0.57823539  0.74507873  1  -1.16128  0  -0.242067  -0.479258  0  2.234346  0
O  O151  1  0.07007465  0.67339584  0.69430458  1  -1.109205  0  -0.313622  -0.457885  0  2.276197  0
O  O152  1  0.83360816  0.41676552  0.88642817  1  -1.319028  0  -0.622989  -0.828888  0  2.040861  0
O  O153  1  0.16866335  0.52270185  0.80746581  1  -1.340414  0  -0.610658  -0.92655  0  2.15424  0
O  O154  1  0.08630524  0.35530824  0.94876149  1  -1.23648  0  -0.366877  -0.660616  0  2.200474  0
O  O155  1  0.05062343  0.36191030  0.76153894  1  -1.246134  0  -0.343359  -0.660506  0  2.266812  0
O  O156  1  0.93575437  0.55885292  0.93718843  1  -1.236556  0  -0.366883  -0.647974  0  2.237064  0
O  O157  1  0.26049435  0.32879010  0.74599982  1  -1.227305  0  -0.34416  -0.635143  0  2.256489  0
O  O158  1  0.29007087  0.37043333  0.91303513  1  -1.248359  0  -0.367523  -0.658934  0  2.2803  0
O  O159  1  0.10640244  0.62462670  0.92729247  1  -1.169001  0  -0.314158  -0.527343  0  2.192228  0
O  O160  1  0.59805915  0.50470607  0.63244531  1  -1.209028  0  -0.322479  -0.59842  0  2.189971  0
O  O161  1  0.63257595  0.49174429  0.81736188  1  -1.24464  0  -0.354011  -0.66955  0  2.258216  0
O  O162  1  0.71857646  0.30175358  0.62988875  1  -1.207498  0  -0.305396  -0.562276  0  2.265066  0
O  O163  1  0.42749841  0.52143055  0.81911726  1  -1.240909  0  -0.356898  -0.646037  0  2.267673  0
O  O164  1  0.41048953  0.45854084  0.65824263  1  -1.253088  0  -0.359011  -0.684473  0  2.322729  0
