# generated using pymatgen
data_NiH18C24S2(N4O3)2
_symmetry_space_group_name_H-M   'P 1'
_cell_length_a   7.41866990
_cell_length_b   15.60526860
_cell_length_c   17.09975767
_cell_angle_alpha   89.99992151
_cell_angle_beta   91.75018141
_cell_angle_gamma   89.99991713
_symmetry_Int_Tables_number   1
_chemical_formula_structural   NiH18C24S2(N4O3)2
_chemical_formula_sum   'Ni2 H36 C48 S4 N16 O12'
_cell_volume   1978.72118338
_cell_formula_units_Z   2
loop_
 _symmetry_equiv_pos_site_id
 _symmetry_equiv_pos_as_xyz
  1  'x, y, z'
loop_
 _atom_site_type_symbol
 _atom_site_label
 _atom_site_symmetry_multiplicity
 _atom_site_fract_x
 _atom_site_fract_y
 _atom_site_fract_z
 _atom_site_occupancy
 _atom_site_pbe_bader_charge
 _atom_site_pbe_bader_spin_density
 _atom_site_pbe_cm5_charge
 _atom_site_pbe_ddec_charge
 _atom_site_pbe_ddec_spin_density
 _atom_site_pbe_ddec_sum_bond_order
 _atom_site_pbe_magmom
Ni  Ni0  1  0.99999937  0.00000018  0.99999958  1  1.169517  1.57092  0.688272  0.659317  1.772706  2.687628  1.558
Ni  Ni1  1  0.00000166  0.49999999  0.49999996  1  1.169556  1.57092  0.688244  0.65928  1.772705  2.687706  1.558
H  H2  1  0.88227669  0.13857992  0.70501426  1  0.114245  0.000124  0.105724  0.117765  8e-06  1.014346  0.0
H  H3  1  0.11772796  0.63857920  0.79498691  1  0.11426  0.000124  0.105695  0.117729  8e-06  1.014387  0.0
H  H4  1  0.11772518  0.86142035  0.29498766  1  0.114237  0.000124  0.105725  0.117767  8e-06  1.014301  0.0
H  H5  1  0.88227391  0.36141850  0.20501266  1  0.114269  0.000124  0.105726  0.117754  8e-06  1.014372  0.0
H  H6  1  0.49821491  0.34693276  0.71048696  1  0.141475  4.2e-05  0.102979  0.124263  -4e-06  1.02683  0.0
H  H7  1  0.50178774  0.84693371  0.78951159  1  0.141446  4.2e-05  0.102972  0.124281  -4e-06  1.026886  0.0
H  H8  1  0.50178696  0.65306687  0.28951261  1  0.141451  4.2e-05  0.102979  0.124286  -4e-06  1.026881  0.0
H  H9  1  0.49820603  0.15306720  0.21048671  1  0.141412  4.2e-05  0.102975  0.124331  -4e-06  1.026909  0.0
H  H10  1  0.34973992  0.27620341  0.82002975  1  0.06354  7.8e-05  0.103935  0.107458  1.4e-05  0.989889  0.0
H  H11  1  0.65025890  0.77620378  0.67996825  1  0.06352  7.8e-05  0.103927  0.107422  1.4e-05  0.989894  0.0
H  H12  1  0.65026060  0.72379686  0.17996981  1  0.063537  7.8e-05  0.103913  0.107424  1.4e-05  0.989899  0.0
H  H13  1  0.34973757  0.22379841  0.32003067  1  0.06352  7.8e-05  0.103915  0.107431  1.4e-05  0.989904  0.0
H  H14  1  0.62156976  0.14220421  0.99961553  1  0.13779  0.000788  0.121003  0.111795  0.000226  1.067302  0.001
H  H15  1  0.37843218  0.64220055  0.50038268  1  0.1378  0.000788  0.121016  0.111812  0.000226  1.067315  0.001
H  H16  1  0.37842806  0.85779927  0.00038458  1  0.137725  0.000788  0.121002  0.111773  0.000226  1.067356  0.001
H  H17  1  0.62157238  0.35779780  0.49961576  1  0.13772  0.000788  0.121003  0.111767  0.000226  1.067345  0.001
H  H18  1  0.36482370  0.06684712  0.06913894  1  0.570156  0.000348  0.319075  0.271025  3.8e-05  1.003546  0.0
H  H19  1  0.63517900  0.56684455  0.43086004  1  0.57021  0.000348  0.31909  0.27101  3.8e-05  1.003539  0.0
H  H20  1  0.63517547  0.93315508  0.93086060  1  0.57015  0.000348  0.319058  0.271015  3.8e-05  1.003556  0.0
H  H21  1  0.36482421  0.43315444  0.56913839  1  0.570207  0.000348  0.319071  0.271017  3.8e-05  1.003574  0.0
H  H22  1  0.16827400  0.08433685  0.84219327  1  0.139966  0.000441  0.121452  0.125699  5.3e-05  1.021104  0.0
H  H23  1  0.83172542  0.58433776  0.65780498  1  0.139992  0.000441  0.121468  0.125716  5.3e-05  1.021108  0.0
H  H24  1  0.83172517  0.91566150  0.15780627  1  0.139972  0.000441  0.121467  0.125716  5.3e-05  1.021106  0.0
H  H25  1  0.16827510  0.41566251  0.34219399  1  0.139988  0.000441  0.12147  0.125714  5.3e-05  1.021089  0.0
H  H26  1  0.81256329  0.42935549  0.66825554  1  0.151787  0.00041  0.130552  0.134665  4.1e-05  0.992342  0.0
H  H27  1  0.18742966  0.92935403  0.83174220  1  0.151464  0.00041  0.130566  0.134691  4.1e-05  0.99225  0.0
H  H28  1  0.18743723  0.57064542  0.33174461  1  0.151387  0.00041  0.130559  0.134678  4.1e-05  0.992305  0.0
H  H29  1  0.81256816  0.07064560  0.16825732  1  0.151453  0.00041  0.130554  0.134675  4.1e-05  0.992341  0.0
H  H30  1  0.99333584  0.31406374  0.47266906  1  0.502468  0.00047  0.350364  0.285761  0.000108  0.906105  0.0
H  H31  1  0.00668093  0.81406479  0.02733447  1  0.502644  0.00047  0.350371  0.285751  0.000108  0.906205  0.0
H  H32  1  0.00667412  0.68593589  0.52733237  1  0.502474  0.00047  0.350402  0.285785  0.000108  0.906181  0.0
H  H33  1  0.99331689  0.18593677  0.97266681  1  0.502666  0.000469  0.350384  0.285746  0.000108  0.906313  0.0
H  H34  1  0.86276629  0.18602620  0.54782618  1  0.102246  0.000857  0.136238  0.131805  0.000328  0.975424  0.0
H  H35  1  0.13725036  0.68602716  0.95217801  1  0.102167  0.000857  0.136237  0.131858  0.000328  0.975426  0.0
H  H36  1  0.13724367  0.81397278  0.45217642  1  0.102199  0.000857  0.136235  0.131851  0.000328  0.975481  0.0
H  H37  1  0.86274612  0.31397247  0.04782442  1  0.102186  0.000857  0.13622  0.13178  0.000328  0.975497  0.0
C  C38  1  0.53012730  0.16827057  0.82639914  1  0.031344  0.003947  -0.00056  0.08418  0.002152  3.989397  0.003
C  C39  1  0.46987186  0.66827043  0.67360075  1  0.031337  0.003947  -0.000588  0.084136  0.002152  3.989299  0.003
C  C40  1  0.46987052  0.83172906  0.17360155  1  0.031363  0.003947  -0.000615  0.084113  0.002152  3.989359  0.003
C  C41  1  0.53012865  0.33172984  0.32639763  1  0.031356  0.003947  -0.000592  0.084203  0.002152  3.989388  0.003
C  C42  1  0.68121067  0.13054738  0.79187180  1  -0.233411  0.006236  -0.018996  -0.1204  0.003535  3.933116  0.004
C  C43  1  0.31878726  0.63054602  0.70812812  1  -0.233405  0.006236  -0.01897  -0.120352  0.003534  3.932987  0.004
C  C44  1  0.31878581  0.86945289  0.20813004  1  -0.233638  0.006236  -0.018954  -0.120201  0.003534  3.932837  0.004
C  C45  1  0.68121325  0.36945297  0.29187085  1  -0.233671  0.006236  -0.018962  -0.120305  0.003534  3.932914  0.004
C  C46  1  0.76434407  0.16944260  0.72904321  1  -0.00771  0.003945  -0.089639  -0.149624  0.002208  3.976703  0.002
C  C47  1  0.23565779  0.66944184  0.77095730  1  -0.007708  0.003945  -0.089559  -0.149519  0.002208  3.976604  0.002
C  C48  1  0.23565646  0.83055703  0.27095868  1  -0.007515  0.003944  -0.089645  -0.14964  0.002208  3.976672  0.002
C  C49  1  0.76434138  0.33055715  0.22904224  1  -0.007484  0.003944  -0.089618  -0.149575  0.002208  3.976698  0.002
C  C50  1  0.70176869  0.24791678  0.69901992  1  -0.004511  0.000902  -0.00713  0.090231  0.00043  4.044629  0.001
C  C51  1  0.29823832  0.74791529  0.80097997  1  -0.004528  0.000902  -0.007206  0.0902  0.00043  4.044715  0.001
C  C52  1  0.29823588  0.75208413  0.30098086  1  -0.004501  0.000903  -0.007143  0.090181  0.00043  4.04471  0.001
C  C53  1  0.70175950  0.25208370  0.19902072  1  -0.004518  0.000902  -0.007188  0.090189  0.00043  4.044822  0.001
C  C54  1  0.55127293  0.28611417  0.73268639  1  -0.100645  0.003659  -0.085931  -0.12013  0.002037  3.943427  0.002
C  C55  1  0.44872856  0.78611518  0.76731221  1  -0.100646  0.003659  -0.085892  -0.120203  0.002037  3.943581  0.002
C  C56  1  0.44873029  0.71388482  0.26731437  1  -0.100714  0.003659  -0.08594  -0.120167  0.002037  3.943502  0.002
C  C57  1  0.55126521  0.21388509  0.23268609  1  -0.100672  0.003659  -0.085876  -0.120189  0.002037  3.943548  0.002
C  C58  1  0.46709525  0.24606998  0.79457754  1  0.018127  -0.000397  -0.087589  -0.123186  -0.000552  3.982658  0.0
C  C59  1  0.53290231  0.74607103  0.70541931  1  0.018135  -0.000397  -0.087582  -0.123091  -0.000552  3.982637  0.0
C  C60  1  0.53290392  0.75392901  0.20542316  1  0.018154  -0.000397  -0.087521  -0.123122  -0.000552  3.982664  0.0
C  C61  1  0.46709280  0.25393052  0.29457842  1  0.01809  -0.000397  -0.087621  -0.123215  -0.000552  3.98264  0.0
C  C62  1  0.43654858  0.13015073  0.89289268  1  0.027056  0.002625  -0.032401  -0.041037  0.001315  4.082347  0.002
C  C63  1  0.56345070  0.63014935  0.60710668  1  0.027108  0.002625  -0.03239  -0.041005  0.001315  4.082363  0.002
C  C64  1  0.56344924  0.86985018  0.10710801  1  0.027046  0.002625  -0.032378  -0.041002  0.001315  4.082335  0.002
C  C65  1  0.43655117  0.36985092  0.39289173  1  0.027102  0.002624  -0.032362  -0.041056  0.001315  4.082424  0.002
C  C66  1  0.49621676  0.12321005  0.97079965  1  0.416219  -0.001733  0.020569  -0.044478  -0.002149  3.909027  0.0
C  C67  1  0.50378254  0.62320818  0.52920030  1  0.416173  -0.001733  0.020532  -0.044557  -0.002149  3.909085  0.0
C  C68  1  0.50377971  0.87679150  0.02920160  1  0.416257  -0.001733  0.020569  -0.044475  -0.002149  3.909075  0.0
C  C69  1  0.49621932  0.37679081  0.47079869  1  0.416291  -0.001733  0.020563  -0.044444  -0.002149  3.909055  0.0
C  C70  1  0.26255491  0.09367273  0.89130637  1  0.397871  -0.001408  0.014494  -0.060454  -0.002163  3.945031  0.0
C  C71  1  0.73744449  0.59367314  0.60869303  1  0.397851  -0.001408  0.014441  -0.060526  -0.002162  3.94512  0.0
C  C72  1  0.73744426  0.90632626  0.10869434  1  0.397934  -0.001408  0.014462  -0.060543  -0.002162  3.944988  0.0
C  C73  1  0.26255738  0.40632585  0.39130654  1  0.397864  -0.001408  0.014429  -0.060518  -0.002162  3.945036  0.0
C  C74  1  0.79534552  0.28950916  0.63498604  1  0.060795  0.003384  -0.022708  -0.032726  0.001756  4.070967  0.003
C  C75  1  0.20466001  0.78950699  0.86501437  1  0.060827  0.003384  -0.022697  -0.032748  0.001756  4.071048  0.003
C  C76  1  0.20466039  0.71049111  0.36501534  1  0.060785  0.003384  -0.022713  -0.032746  0.001756  4.071067  0.003
C  C77  1  0.79533781  0.21049135  0.13498632  1  0.060839  0.003384  -0.02274  -0.03285  0.001756  4.071152  0.003
C  C78  1  0.83736147  0.37751084  0.62790474  1  0.471763  -0.001497  0.034164  -0.024199  -0.002337  3.898274  0.0
C  C79  1  0.16263974  0.87750933  0.87209433  1  0.472109  -0.001497  0.034147  -0.024198  -0.002337  3.89814  0.0
C  C80  1  0.16264175  0.62249007  0.37209543  1  0.47225  -0.001497  0.034198  -0.024143  -0.002337  3.898284  0.0
C  C81  1  0.83735943  0.12248901  0.12790579  1  0.472079  -0.001497  0.03418  -0.024149  -0.002338  3.898184  0.0
C  C82  1  0.86552298  0.25173605  0.56845200  1  0.332051  -0.002421  0.026491  -0.063838  -0.002838  3.925158  -0.001
C  C83  1  0.13449076  0.75173639  0.93155090  1  0.332051  -0.002421  0.02644  -0.063996  -0.002838  3.92536  -0.001
C  C84  1  0.13448563  0.74826358  0.43155000  1  0.332078  -0.002421  0.026471  -0.063946  -0.002838  3.925414  -0.001
C  C85  1  0.86550436  0.24826388  0.06845093  1  0.33203  -0.002421  0.026551  -0.063692  -0.002838  3.925457  -0.001
S  S86  1  0.78377373  0.03395879  0.82833355  1  3.159657  0.00542  0.511865  1.176925  0.004171  6.144419  0.004
S  S87  1  0.21622585  0.53395755  0.67166710  1  3.15966  0.00542  0.511937  1.177048  0.004171  6.144196  0.004
S  S88  1  0.21622409  0.96604148  0.17166538  1  3.159682  0.005419  0.511854  1.176954  0.00417  6.144348  0.004
S  S89  1  0.78377467  0.46604208  0.32833305  1  3.159685  0.00542  0.511903  1.176957  0.00417  6.144258  0.004
N  N90  1  0.36441484  0.08480776  0.01042813  1  -0.853561  0.002335  -0.276822  -0.073375  0.000489  3.700997  0.001
N  N91  1  0.63558510  0.58480511  0.48957137  1  -0.853781  0.002335  -0.276753  -0.073266  0.000489  3.700884  0.001
N  N92  1  0.63558299  0.91519443  0.98957256  1  -0.85351  0.002335  -0.276795  -0.073417  0.000489  3.701064  0.001
N  N93  1  0.36441811  0.41519388  0.51042822  1  -0.853593  0.002334  -0.276773  -0.073394  0.000489  3.700998  0.001
N  N94  1  0.22128713  0.06569432  0.96302745  1  -0.721587  0.066036  -0.25907  -0.179527  0.038754  3.557726  0.06
N  N95  1  0.77871235  0.56569353  0.53697316  1  -0.721455  0.066036  -0.259083  -0.179531  0.038755  3.557761  0.06
N  N96  1  0.77871204  0.93430595  0.03697385  1  -0.721633  0.066036  -0.259083  -0.179431  0.038753  3.557594  0.06
N  N97  1  0.22128817  0.43430610  0.46302639  1  -0.721622  0.066038  -0.259082  -0.179459  0.038755  3.557653  0.06
N  N98  1  0.92633800  0.39219949  0.56227418  1  -0.694104  0.066591  -0.246153  -0.155998  0.039269  3.512932  0.061
N  N99  1  0.07366721  0.89219859  0.93772551  1  -0.694488  0.066595  -0.246176  -0.156068  0.039268  3.513024  0.061
N  N100  1  0.07366792  0.60780014  0.43772544  1  -0.694562  0.066595  -0.246184  -0.156078  0.039269  3.513002  0.061
N  N101  1  0.92633330  0.10780104  0.06227405  1  -0.694448  0.066595  -0.246199  -0.1561  0.039269  3.512832  0.061
N  N102  1  0.94248085  0.31521269  0.52717284  1  -0.831465  0.001886  -0.281767  -0.079999  0.000192  3.740565  0.0
N  N103  1  0.05752865  0.81521303  0.97282876  1  -0.831115  0.001882  -0.281705  -0.079853  0.000192  3.74073  0.0
N  N104  1  0.05752507  0.68478694  0.47282913  1  -0.831027  0.001882  -0.281782  -0.079942  0.000192  3.740735  0.0
N  N105  1  0.94246917  0.18478853  0.02717076  1  -0.831131  0.001882  -0.281749  -0.079963  0.000193  3.740779  0.0
O  O106  1  0.64141602  0.96889115  0.83591734  1  -1.330577  -0.000179  -0.339109  -0.595288  -0.000721  2.204451  0.0
O  O107  1  0.35858625  0.46889102  0.66408280  1  -1.330621  -0.000179  -0.339138  -0.595336  -0.000721  2.204423  0.0
O  O108  1  0.35858045  0.03111040  0.16408333  1  -1.330554  -0.000179  -0.339109  -0.595327  -0.000722  2.204407  0.0
O  O109  1  0.64141696  0.53110925  0.33591562  1  -1.330575  -0.000179  -0.339114  -0.595301  -0.000721  2.204485  0.0
O  O110  1  0.85668207  0.06162500  0.90702506  1  -1.317971  0.051386  -0.348132  -0.639968  0.027684  2.438134  0.045
O  O111  1  0.14331877  0.56162457  0.59297499  1  -1.317946  0.051388  -0.348131  -0.639997  0.027685  2.438038  0.045
O  O112  1  0.14331979  0.93837335  0.09297393  1  -1.318015  0.051387  -0.348119  -0.639953  0.027684  2.438097  0.045
O  O113  1  0.85668175  0.43837442  0.40702457  1  -1.317948  0.051386  -0.34813  -0.639973  0.027684  2.438046  0.045
O  O114  1  0.92436107  0.01120236  0.77458480  1  -1.327804  0.000266  -0.347033  -0.586984  -0.000397  2.138389  0.0
O  O115  1  0.07563858  0.51120306  0.72541588  1  -1.327831  0.000265  -0.347079  -0.587051  -0.000398  2.138337  0.0
O  O116  1  0.07563405  0.98879406  0.22541294  1  -1.327784  0.000265  -0.347044  -0.587063  -0.000398  2.138436  0.0
O  O117  1  0.92436193  0.48879593  0.27458426  1  -1.327831  0.000265  -0.347075  -0.587037  -0.000398  2.138341  0.0
