# generated using pymatgen
data_K3H25PtC44S3N4O9
_symmetry_space_group_name_H-M   'P 1'
_cell_length_a   7.79955201
_cell_length_b   22.87963273
_cell_length_c   33.18184097
_cell_angle_alpha   90.00073040
_cell_angle_beta   90.00062854
_cell_angle_gamma   96.03312493
_symmetry_Int_Tables_number   1
_chemical_formula_structural   K3H25PtC44S3N4O9
_chemical_formula_sum   'K12 H100 Pt4 C176 S12 N16 O36'
_cell_volume   5888.53241553
_cell_formula_units_Z   4
loop_
 _symmetry_equiv_pos_site_id
 _symmetry_equiv_pos_as_xyz
  1  'x, y, z'
loop_
 _atom_site_type_symbol
 _atom_site_label
 _atom_site_symmetry_multiplicity
 _atom_site_fract_x
 _atom_site_fract_y
 _atom_site_fract_z
 _atom_site_occupancy
 _atom_site_pbe_bader_charge
 _atom_site_pbe_bader_spin_density
 _atom_site_pbe_cm5_charge
 _atom_site_pbe_ddec_charge
 _atom_site_pbe_ddec_spin_density
 _atom_site_pbe_ddec_sum_bond_order
 _atom_site_pbe_magmom
K  K0  1  0.80746482  0.79385457  0.75548611  1  0.873418  0  0.921575  0.871538  0  0.719119  0
K  K1  1  0.69261803  0.20616382  0.25552438  1  0.873382  0  0.921475  0.871526  0  0.719069  0
K  K2  1  0.19258812  0.20615785  0.24450386  1  0.873341  0  0.92149  0.87148  0  0.719188  0
K  K3  1  0.30745172  0.79383318  0.74448909  1  0.873355  0  0.921631  0.871524  0  0.719252  0
K  K4  1  0.55101111  0.78386310  0.62296476  1  0.906624  0  0.809207  0.911507  0  0.488679  0
K  K5  1  0.94881780  0.21613455  0.12297816  1  0.906671  0  0.809181  0.911484  0  0.488543  0
K  K6  1  0.44890843  0.21612933  0.37703485  1  0.906659  0  0.809098  0.911522  0  0.488446  0
K  K7  1  0.05105959  0.78386631  0.87700578  1  0.906528  0  0.809339  0.911519  0  0.488803  0
K  K8  1  0.53717876  0.68246922  0.83180503  1  0.903664  0  0.80416  0.924903  0  0.511736  0
K  K9  1  0.96287272  0.31752837  0.33180670  1  0.90369  0  0.804284  0.924949  0  0.511783  0
K  K10  1  0.46280784  0.31751650  0.16818795  1  0.903657  0  0.804244  0.924939  0  0.51172  0
K  K11  1  0.03715930  0.68247486  0.66819502  1  0.90367  0  0.8043  0.924937  0  0.511838  0
H  H12  1  0.80477719  0.09959090  0.78316115  1  0.109019  0  0.105738  0.123008  0  1.017823  0
H  H13  1  0.69523112  0.90041104  0.28317328  1  0.10874  0  0.105776  0.123128  0  1.017763  0
H  H14  1  0.19524102  0.90040531  0.21683696  1  0.107893  0  0.105796  0.123152  0  1.017721  0
H  H15  1  0.30476131  0.09960061  0.71683477  1  0.108076  0  0.105747  0.123049  0  1.017726  0
H  H16  1  0.89501385  0.17968931  0.84076993  1  0.125877  0  0.105715  0.128502  0  1.014607  0
H  H17  1  0.60496535  0.82032134  0.34077992  1  0.125789  0  0.105681  0.128442  0  1.014728  0
H  H18  1  0.10497787  0.82031223  0.15922787  1  0.125804  0  0.105669  0.128382  0  1.01467  0
H  H19  1  0.39503734  0.17968238  0.65922451  1  0.12573  0  0.105662  0.128296  0  1.014751  0
H  H20  1  0.31097574  0.38205680  0.84151958  1  0.112049  0  0.104774  0.127122  0  1.017027  0
H  H21  1  0.18901246  0.61793895  0.34151866  1  0.112093  0  0.104803  0.127177  0  1.017106  0
H  H22  1  0.68901513  0.61794210  0.15848064  1  0.112116  0  0.104806  0.127161  0  1.017095  0
H  H23  1  0.81097841  0.38205599  0.65848034  1  0.112077  0  0.10479  0.127142  0  1.017091  0
H  H24  1  0.40469476  0.46244117  0.78462930  1  0.081077  0  0.0999  0.117161  0  1.027035  0
H  H25  1  0.09532586  0.53755600  0.28462864  1  0.081211  0  0.099901  0.117235  0  1.02698  0
H  H26  1  0.59531961  0.53755505  0.21537032  1  0.081431  0  0.09991  0.117201  0  1.027043  0
H  H27  1  0.90467768  0.46244640  0.71536705  1  0.081618  0  0.099899  0.117181  0  1.027094  0
H  H28  1  0.26250173  0.47926664  0.62717469  1  0.070081  0  0.103569  0.122272  0  1.019916  0
H  H29  1  0.23751974  0.52073214  0.12717184  1  0.07013  0  0.103578  0.12223  0  1.019952  0
H  H30  1  0.73750793  0.52073487  0.37282793  1  0.070182  0  0.103554  0.122245  0  1.019898  0
H  H31  1  0.76249519  0.47926980  0.87282867  1  0.070238  0  0.103603  0.122282  0  1.019971  0
H  H32  1  0.16884197  0.39978336  0.56974462  1  0.084484  0  0.106685  0.124634  0  1.017768  0
H  H33  1  0.33113856  0.60022002  0.06974391  1  0.084826  0  0.106708  0.124661  0  1.017782  0
H  H34  1  0.83115345  0.60022169  0.43025770  1  0.084726  0  0.106714  0.124676  0  1.017805  0
H  H35  1  0.66886840  0.39978501  0.93025720  1  0.084867  0  0.106711  0.124598  0  1.01777  0
H  H36  1  0.03421731  0.16518449  0.56920156  1  0.064689  0  0.106603  0.125054  0  1.02178  0
H  H37  1  0.46580235  0.83481705  0.06920717  1  0.064645  0  0.106626  0.125268  0  1.021569  0
H  H38  1  0.96577982  0.83482187  0.43079655  1  0.065134  0  0.106627  0.125139  0  1.02168  0
H  H39  1  0.53422255  0.16518795  0.93079515  1  0.064525  0  0.106621  0.12521  0  1.02162  0
H  H40  1  0.94268817  0.08546901  0.62662986  1  0.106765  0  0.109312  0.1317  0  1.004274  0
H  H41  1  0.55731549  0.91452929  0.12663664  1  0.106899  0  0.109406  0.131915  0  1.004078  0
H  H42  1  0.05730754  0.91453297  0.37336704  1  0.106804  0  0.109329  0.131736  0  1.004237  0
H  H43  1  0.44268577  0.08547399  0.87336840  1  0.106941  0  0.109392  0.131878  0  1.004213  0
H  H44  1  0.19778889  0.19601736  0.86023217  1  0.06148  0  0.096466  0.094946  0  1.049201  0
H  H45  1  0.30219760  0.80398230  0.36024131  1  0.061599  0  0.096503  0.09501  0  1.049091  0
H  H46  1  0.80222106  0.80397711  0.13976986  1  0.061674  0  0.096472  0.094977  0  1.04915  0
H  H47  1  0.69778643  0.19602321  0.63976553  1  0.061732  0  0.096477  0.095019  0  1.049074  0
H  H48  1  0.19207461  0.19453796  0.93460446  1  0.067042  0  0.099905  0.098547  0  0.997241  0
H  H49  1  0.30791542  0.80546586  0.43461152  1  0.067262  0  0.100015  0.098663  0  0.997186  0
H  H50  1  0.80794260  0.80545914  0.06539877  1  0.067286  0  0.099958  0.098692  0  0.997284  0
H  H51  1  0.69208898  0.19453917  0.56539412  1  0.067249  0  0.099961  0.098623  0  0.997234  0
H  H52  1  0.09675773  0.27940091  0.97268879  1  0.044329  0  0.102446  0.0972  0  0.993244  0
H  H53  1  0.40324971  0.72060762  0.47269776  1  0.044266  0  0.102527  0.097398  0  0.993172  0
H  H54  1  0.90325265  0.72059884  0.02731052  1  0.044382  0  0.102456  0.097131  0  0.99333  0
H  H55  1  0.59677689  0.27939870  0.52730486  1  0.044344  0  0.10251  0.097351  0  0.993123  0
H  H56  1  0.00639995  0.36539456  0.93499313  1  0.052475  0  0.097893  0.096169  0  1.000232  0
H  H57  1  0.49359324  0.63461102  0.43500279  1  0.052393  0  0.097945  0.096145  0  1.000401  0
H  H58  1  0.99359377  0.63460126  0.06500376  1  0.052392  0  0.097853  0.096054  0  1.00033  0
H  H59  1  0.50642667  0.36539838  0.56499682  1  0.052293  0  0.09784  0.096073  0  1.000348  0
H  H60  1  0.00788662  0.36574296  0.86055242  1  0.046153  0  0.094772  0.093554  0  1.047678  0
H  H61  1  0.49208636  0.63425454  0.36056267  1  0.046596  0  0.094805  0.093594  0  1.047713  0
H  H62  1  0.99210995  0.63424978  0.13944267  1  0.046523  0  0.094789  0.093521  0  1.047751  0
H  H63  1  0.50790664  0.36575492  0.63943634  1  0.04631  0  0.094774  0.093631  0  1.047612  0
H  H64  1  0.16159686  0.51286282  0.75030441  1  0.103307  0  0.099465  0.101272  0  1.052677  0
H  H65  1  0.33843175  0.48713627  0.25030182  1  0.103125  0  0.099456  0.101317  0  1.052497  0
H  H66  1  0.83839529  0.48714400  0.24969671  1  0.103243  0  0.099468  0.101315  0  1.052523  0
H  H67  1  0.66157150  0.51286525  0.74970412  1  0.103191  0  0.099436  0.101218  0  1.052637  0
H  H68  1  0.27061884  0.61875562  0.75139055  1  0.104811  0  0.108008  0.099822  0  1.058337  0
H  H69  1  0.22938505  0.38124618  0.25139519  1  0.104569  0  0.107993  0.099836  0  1.058271  0
H  H70  1  0.72938256  0.38124810  0.24860635  1  0.104782  0  0.108001  0.099854  0  1.058243  0
H  H71  1  0.77060026  0.61875933  0.74861406  1  0.104916  0  0.108018  0.09974  0  1.058367  0
H  H72  1  0.64936311  0.58836570  0.66143326  1  0.105702  0  0.119915  0.124776  0  0.984893  0
H  H73  1  0.85063444  0.41162452  0.16143637  1  0.105472  0  0.119887  0.124756  0  0.984812  0
H  H74  1  0.35064869  0.41162261  0.33856876  1  0.105437  0  0.119909  0.124758  0  0.984882  0
H  H75  1  0.14935629  0.58837790  0.83856776  1  0.105573  0  0.119896  0.124757  0  0.984941  0
H  H76  1  0.54932077  0.48105595  0.66295488  1  0.09012  0  0.107759  0.113037  0  0.995966  0
H  H77  1  0.95068213  0.51893475  0.16295497  1  0.090468  0  0.107737  0.11304  0  0.99591  0
H  H78  1  0.45066982  0.51893416  0.33705136  1  0.090403  0  0.107751  0.112973  0  0.996015  0
H  H79  1  0.04933978  0.48106498  0.83704796  1  0.09044  0  0.107757  0.113079  0  0.995893  0
H  H80  1  0.90715619  0.34428459  0.55203473  1  0.080889  0  0.100415  0.101035  0  1.022054  0
H  H81  1  0.59284720  0.65571570  0.05203631  1  0.081008  0  0.100406  0.101092  0  1.02209  0
H  H82  1  0.09285320  0.65571208  0.44796820  1  0.080901  0  0.100447  0.101169  0  1.022139  0
H  H83  1  0.40716374  0.34429372  0.94796872  1  0.080904  0  0.100412  0.101077  0  1.022089  0
H  H84  1  0.88543150  0.33906869  0.47738150  1  0.083502  0  0.108595  0.110999  0  0.985111  0
H  H85  1  0.61455143  0.66092981  0.97738255  1  0.083429  0  0.108534  0.110961  0  0.985258  0
H  H86  1  0.11455809  0.66092626  0.52262113  1  0.083429  0  0.108589  0.110969  0  0.985146  0
H  H87  1  0.38544684  0.33906820  0.02262218  1  0.083516  0  0.108573  0.110957  0  0.985204  0
H  H88  1  0.25875590  0.21358712  0.47560387  1  0.083232  0  0.109244  0.107021  0  1.009332  0
H  H89  1  0.24123959  0.78641182  0.97560786  1  0.083503  0  0.109309  0.107167  0  1.009175  0
H  H90  1  0.74126045  0.78641526  0.52439755  1  0.083515  0  0.109229  0.107063  0  1.009147  0
H  H91  1  0.75873861  0.21357963  0.02439085  1  0.083551  0  0.109315  0.107141  0  1.009184  0
H  H92  1  0.28647862  0.22105532  0.55017907  1  0.098226  0  0.101172  0.101912  0  1.020442  0
H  H93  1  0.21355012  0.77895725  0.05018325  1  0.098316  0  0.101206  0.101891  0  1.020336  0
H  H94  1  0.71355339  0.77895186  0.44982235  1  0.098486  0  0.101235  0.101942  0  1.020417  0
H  H95  1  0.78646680  0.22105084  0.94981697  1  0.098371  0  0.101176  0.101879  0  1.020321  0
H  H96  1  0.04594942  0.04248818  0.74126533  1  0.076454  0  0.099027  0.100914  0  1.0408  0
H  H97  1  0.45405479  0.95750417  0.24127741  1  0.07588  0  0.099103  0.101067  0  1.040988  0
H  H98  1  0.95405611  0.95751246  0.25872374  1  0.07588  0  0.099041  0.100951  0  1.040903  0
H  H99  1  0.54595060  0.04249602  0.75871617  1  0.07547  0  0.099214  0.101201  0  1.0411  0
H  H100  1  0.92689283  0.93819191  0.73537981  1  0.151237  0  0.110676  0.121928  0  1.032354  0
H  H101  1  0.57311734  0.06180289  0.23539843  1  0.151648  0  0.110803  0.122092  0  1.032588  0
H  H102  1  0.07312395  0.06180782  0.26460805  1  0.151475  0  0.11073  0.122029  0  1.032467  0
H  H103  1  0.42686570  0.93819955  0.76458792  1  0.148603  0  0.110847  0.12208  0  1.032702  0
H  H104  1  0.51192897  0.98862848  0.66154303  1  0.111003  0  0.112052  0.12309  0  0.984542  0
H  H105  1  0.98802530  0.01137458  0.16154479  1  0.111529  0  0.112075  0.123088  0  0.984565  0
H  H106  1  0.48803200  0.01137312  0.33846441  1  0.101063  0  0.112031  0.123099  0  0.984579  0
H  H107  1  0.01197668  0.98863090  0.83844909  1  0.111325  0  0.112028  0.123049  0  0.984412  0
H  H108  1  0.63612311  0.09374053  0.66641151  1  0.07596  0  0.099763  0.103472  0  1.021863  0
H  H109  1  0.86384736  0.90626041  0.16641206  1  0.075827  0  0.099805  0.10356  0  1.021923  0
H  H110  1  0.36383814  0.90626195  0.33359082  1  0.076487  0  0.099784  0.103445  0  1.022074  0
H  H111  1  0.13618081  0.09374283  0.83358634  1  0.076369  0  0.09983  0.10361  0  1.021943  0
Pt  Pt112  1  0.10403974  0.28188831  0.70563521  1  0.789504  0  0.77896  0.37539  0  3.711283  0
Pt  Pt113  1  0.39596072  0.71810948  0.20564083  1  0.789252  0  0.778925  0.37532  0  3.711187  0
Pt  Pt114  1  0.89594885  0.71811148  0.29436349  1  0.789798  0  0.778951  0.37538  0  3.711302  0
Pt  Pt115  1  0.60405777  0.28189553  0.79436300  1  0.789235  0  0.779041  0.375465  0  3.711423  0
C  C116  1  0.94381921  0.16654458  0.74205872  1  0.424551  0  0.085635  0.168981  0  4.022698  0
C  C117  1  0.55615757  0.83345702  0.24206689  1  0.42384  0  0.08587  0.169331  0  4.022427  0
C  C118  1  0.05615785  0.83345523  0.25793879  1  0.424672  0  0.085723  0.168987  0  4.022544  0
C  C119  1  0.44384839  0.16654890  0.75793604  1  0.42421  0  0.08572  0.169085  0  4.022493  0
C  C120  1  0.87906597  0.14204620  0.77974420  1  -0.149191  0  -0.102182  -0.172614  0  3.988378  0
C  C121  1  0.62091909  0.85795572  0.27975546  1  -0.149479  0  -0.102368  -0.172993  0  3.98821  0
C  C122  1  0.12092903  0.85795358  0.22025270  1  -0.147918  0  -0.10229  -0.17289  0  3.988322  0
C  C123  1  0.37907633  0.14205329  0.72025078  1  -0.147896  0  -0.102279  -0.172829  0  3.988229  0
C  C124  1  0.92605645  0.18235374  0.80897187  1  -0.005034  0  -0.104194  -0.184616  0  4.013991  0
C  C125  1  0.57391308  0.81765144  0.30898326  1  -0.00365  0  -0.104153  -0.184277  0  4.014058  0
C  C126  1  0.07393357  0.81764649  0.19102563  1  -0.005191  0  -0.104117  -0.184279  0  4.013893  0
C  C127  1  0.42608234  0.18235361  0.69102117  1  -0.003545  0  -0.104116  -0.184114  0  4.013932  0
C  C128  1  0.02259892  0.23198529  0.78975530  1  0.412893  0  0.085581  0.152608  0  4.049948  0
C  C129  1  0.47737512  0.76802175  0.28976397  1  0.412041  0  0.08573  0.152442  0  4.05045  0
C  C130  1  0.97738711  0.76801450  0.21024371  1  0.412973  0  0.085516  0.152297  0  4.050035  0
C  C131  1  0.52262600  0.23198505  0.71023895  1  0.411946  0  0.085654  0.152388  0  4.05039  0
C  C132  1  0.10317656  0.28114245  0.81006823  1  0.060486  0  0.003064  -0.060569  0  3.96077  0
C  C133  1  0.39681452  0.71885881  0.31007205  1  0.060899  0  0.003063  -0.060521  0  3.960861  0
C  C134  1  0.89682770  0.71885423  0.18993198  1  0.060499  0  0.003115  -0.060405  0  3.960805  0
C  C135  1  0.60318290  0.28114844  0.68992846  1  0.034803  0  0.003167  -0.06022  0  3.960799  0
C  C136  1  0.18388195  0.33059054  0.79012572  1  0.337389  0  0.083272  0.150494  0  4.051993  0
C  C137  1  0.31611119  0.66940812  0.29012860  1  0.33729  0  0.083205  0.150402  0  4.052254  0
C  C138  1  0.81611504  0.66940748  0.20987480  1  0.337148  0  0.08321  0.150369  0  4.052049  0
C  C139  1  0.68389035  0.33059604  0.70987192  1  0.36289  0  0.083162  0.150241  0  4.052399  0
C  C140  1  0.27976712  0.37996986  0.80972021  1  -0.070904  0  -0.104884  -0.181067  0  4.020153  0
C  C141  1  0.22023448  0.62002830  0.30972150  1  -0.071135  0  -0.104814  -0.18097  0  4.020306  0
C  C142  1  0.72023045  0.62002991  0.19027940  1  -0.070814  0  -0.104834  -0.180991  0  4.020092  0
C  C143  1  0.77976892  0.37997366  0.69027871  1  -0.070802  0  -0.104836  -0.180959  0  4.020198  0
C  C144  1  0.32747301  0.42063437  0.78076756  1  -0.052385  0  -0.11152  -0.189415  0  4.010092  0
C  C145  1  0.17254043  0.57936494  0.28076717  1  -0.052352  0  -0.111556  -0.189545  0  4.010141  0
C  C146  1  0.67252783  0.57936364  0.21923416  1  -0.05268  0  -0.111535  -0.189452  0  4.010173  0
C  C147  1  0.82747194  0.42063701  0.71923304  1  -0.05304  0  -0.111545  -0.18948  0  4.010009  0
C  C148  1  0.26274446  0.39677676  0.74282524  1  0.375209  0  0.083745  0.170449  0  4.020737  0
C  C149  1  0.23727635  0.60322307  0.24282492  1  0.375181  0  0.08377  0.170482  0  4.020492  0
C  C150  1  0.73724869  0.60322126  0.25717588  1  0.375619  0  0.083658  0.170221  0  4.02109  0
C  C151  1  0.76273331  0.39677844  0.75717620  1  0.375316  0  0.083755  0.170383  0  4.020646  0
C  C152  1  0.27693321  0.42649417  0.70591062  1  0.004643  0  -0.007515  -0.079773  0  3.968483  0
C  C153  1  0.22308221  0.57350227  0.20591030  1  0.004523  0  -0.007679  -0.080119  0  3.968657  0
C  C154  1  0.72305581  0.57350693  0.29409140  1  0.004372  0  -0.007551  -0.079726  0  3.968535  0
C  C155  1  0.77693884  0.42649877  0.79409081  1  0.004332  0  -0.007614  -0.079841  0  3.968523  0
C  C156  1  0.22268918  0.40150803  0.66891671  1  0.450439  0  0.080634  0.156257  0  4.061044  0
C  C157  1  0.27732284  0.59849118  0.16891796  1  0.450542  0  0.080639  0.156341  0  4.061057  0
C  C158  1  0.77730880  0.59849306  0.33108411  1  0.450529  0  0.080625  0.156377  0  4.06073  0
C  C159  1  0.72268825  0.40151077  0.83108225  1  0.450495  0  0.080622  0.156186  0  4.061018  0
C  C160  1  0.22541384  0.43263935  0.63110099  1  -0.076712  0  -0.111662  -0.196253  0  4.017895  0
C  C161  1  0.27460043  0.56736039  0.13110105  1  -0.07672  0  -0.111644  -0.196181  0  4.017735  0
C  C162  1  0.77459226  0.56736304  0.36890134  1  -0.076527  0  -0.111619  -0.1963  0  4.017656  0
C  C163  1  0.72541108  0.43264287  0.86889946  1  -0.077163  0  -0.111619  -0.196183  0  4.017827  0
C  C164  1  0.17607722  0.39239579  0.60190466  1  -0.045928  0  -0.10513  -0.181317  0  4.015597  0
C  C165  1  0.32392026  0.60760383  0.10190400  1  -0.046306  0  -0.105164  -0.1814  0  4.015564  0
C  C166  1  0.82392902  0.60760704  0.39809767  1  -0.046143  0  -0.105168  -0.181375  0  4.01555  0
C  C167  1  0.67608313  0.39240209  0.89809622  1  -0.046336  0  -0.105341  -0.181433  0  4.015677  0
C  C168  1  0.13925331  0.33624056  0.62138098  1  0.359069  0  0.083291  0.156256  0  4.035168  0
C  C169  1  0.36074507  0.66375902  0.12138211  1  0.359327  0  0.083371  0.156301  0  4.035099  0
C  C170  1  0.86074881  0.66376141  0.37861984  1  0.35881  0  0.083436  0.156453  0  4.035164  0
C  C171  1  0.63925505  0.33624470  0.87861810  1  0.35962  0  0.083422  0.156298  0  4.035015  0
C  C172  1  0.10217565  0.28266538  0.60121877  1  0.108084  0  0.004483  -0.05311  0  3.941978  0
C  C173  1  0.39782009  0.71733290  0.10122167  1  0.107828  0  0.004536  -0.052872  0  3.941644  0
C  C174  1  0.89782746  0.71733570  0.39878205  1  0.107803  0  0.004382  -0.05321  0  3.94199  0
C  C175  1  0.60217946  0.28266906  0.89877975  1  0.107089  0  0.004524  -0.052954  0  3.941808  0
C  C176  1  0.06699565  0.22861584  0.62103746  1  0.429042  0  0.085668  0.158766  0  4.026046  0
C  C177  1  0.43300627  0.77138284  0.12104364  1  0.428856  0  0.085756  0.159054  0  4.025745  0
C  C178  1  0.93300248  0.77138569  0.37896306  1  0.429179  0  0.085664  0.158929  0  4.025825  0
C  C179  1  0.56700083  0.22861867  0.87895989  1  0.429494  0  0.08574  0.158869  0  4.025824  0
C  C180  1  0.02862627  0.17254914  0.60136616  1  -0.060585  0  -0.104264  -0.181907  0  4.009135  0
C  C181  1  0.47138785  0.82745044  0.10137414  1  -0.060381  0  -0.104391  -0.182537  0  4.009124  0
C  C182  1  0.97136730  0.82745415  0.39863224  1  -0.061433  0  -0.104369  -0.182087  0  4.009104  0
C  C183  1  0.52862580  0.17255150  0.89863060  1  -0.060528  0  -0.104312  -0.182152  0  4.009148  0
C  C184  1  0.98050839  0.13208452  0.63046083  1  -0.080307  0  -0.104683  -0.183532  0  3.996935  0
C  C185  1  0.51950018  0.86791253  0.13047071  1  -0.080286  0  -0.10469  -0.183524  0  3.996963  0
C  C186  1  0.01948092  0.86791747  0.36953728  1  -0.079997  0  -0.104653  -0.183597  0  3.996985  0
C  C187  1  0.48050820  0.13208898  0.86953523  1  -0.080179  0  -0.104778  -0.18374  0  3.997151  0
C  C188  1  0.98531797  0.16286595  0.66839105  1  0.328827  0  0.083572  0.156905  0  4.050462  0
C  C189  1  0.51468806  0.83713364  0.16839734  1  0.328726  0  0.083501  0.156913  0  4.050865  0
C  C190  1  0.01467119  0.83713559  0.33160826  1  0.328551  0  0.083609  0.157  0  4.050434  0
C  C191  1  0.48532445  0.16286874  0.83160559  1  0.328722  0  0.083521  0.156837  0  4.050586  0
C  C192  1  0.92877587  0.13745281  0.70503591  1  0.067775  0  0.000927  -0.061589  0  3.957789  0
C  C193  1  0.57121090  0.86254537  0.20504407  1  0.068121  0  0.000878  -0.061797  0  3.95826  0
C  C194  1  0.07120148  0.86254787  0.29496189  1  0.0678  0  0.000902  -0.061581  0  3.957618  0
C  C195  1  0.42880830  0.13745788  0.79495825  1  0.067615  0  0.00094  -0.061504  0  3.957702  0
C  C196  1  0.10236309  0.28083609  0.85482705  1  0.07898  0  -0.004734  0.08623  0  3.957399  0
C  C197  1  0.39762497  0.71916522  0.35483359  1  0.07739  0  -0.004642  0.086286  0  3.957433  0
C  C198  1  0.89765569  0.71915792  0.14517196  1  0.079502  0  -0.004619  0.086368  0  3.957302  0
C  C199  1  0.60236946  0.28084467  0.64516874  1  0.077698  0  -0.004625  0.086349  0  3.957579  0
C  C200  1  0.15241844  0.23269281  0.87654752  1  -0.007066  0  -0.089374  -0.121237  0  3.961509  0
C  C201  1  0.34756493  0.76731071  0.37655435  1  -0.005794  0  -0.089311  -0.121175  0  3.961656  0
C  C202  1  0.84760432  0.76730559  0.12345300  1  -0.007467  0  -0.089377  -0.12122  0  3.961369  0
C  C203  1  0.65242237  0.23269700  0.62344767  1  -0.005818  0  -0.08935  -0.121325  0  3.961502  0
C  C204  1  0.14965352  0.23200994  0.91853313  1  -0.09168  0  -0.096256  -0.089525  0  4.028714  0
C  C205  1  0.35033722  0.76799443  0.41853967  1  -0.092899  0  -0.096604  -0.08983  0  4.029026  0
C  C206  1  0.85036825  0.76798935  0.08146829  1  -0.091744  0  -0.096432  -0.08994  0  4.02922  0
C  C207  1  0.64967045  0.23201280  0.58146205  1  -0.092265  0  -0.096424  -0.089722  0  4.028995  0
C  C208  1  0.09803237  0.27975275  0.93983347  1  -0.081906  0  -0.09094  -0.08185  0  4.04096  0
C  C209  1  0.40197261  0.72025291  0.43984154  1  -0.081535  0  -0.091117  -0.082222  0  4.041009  0
C  C210  1  0.90199096  0.72024741  0.06016674  1  -0.082144  0  -0.090816  -0.081517  0  4.041002  0
C  C211  1  0.59804503  0.27975342  0.56016079  1  -0.082165  0  -0.091082  -0.082049  0  4.040989  0
C  C212  1  0.04934628  0.32815350  0.91875402  1  -0.098908  0  -0.098238  -0.093407  0  4.03728  0
C  C213  1  0.45065614  0.67184734  0.41876209  1  -0.099471  0  -0.098119  -0.093199  0  4.037367  0
C  C214  1  0.95067207  0.67184316  0.08124559  1  -0.098803  0  -0.098202  -0.093342  0  4.0372  0
C  C215  1  0.54936121  0.32815812  0.58123903  1  -0.099131  0  -0.098116  -0.093216  0  4.037303  0
C  C216  1  0.05098513  0.32858551  0.87676510  1  -0.001232  0  -0.090945  -0.122861  0  3.966031  0
C  C217  1  0.44901463  0.67141315  0.37677376  1  -0.000569  0  -0.091002  -0.122879  0  3.9662  0
C  C218  1  0.94903223  0.67140807  0.12323391  1  -0.001932  0  -0.091061  -0.122954  0  3.966332  0
C  C219  1  0.55099460  0.32859496  0.62322797  1  -0.000857  0  -0.090948  -0.123013  0  3.96644  0
C  C220  1  0.34585954  0.48951077  0.70606287  1  -0.042386  0  0.00459  0.097848  0  3.969181  0
C  C221  1  0.15415674  0.51048831  0.20606093  1  -0.042709  0  0.004719  0.098157  0  3.968895  0
C  C222  1  0.65413816  0.51048944  0.29394066  1  -0.042202  0  0.004749  0.098037  0  3.968998  0
C  C223  1  0.84586019  0.48951186  0.79394110  1  -0.042305  0  0.004735  0.098056  0  3.968914  0
C  C224  1  0.26907224  0.52912553  0.73100400  1  -0.006759  0  -0.085253  -0.130191  0  3.967897  0
C  C225  1  0.23094651  0.47087362  0.23100311  1  -0.006041  0  -0.085359  -0.130439  0  3.967572  0
C  C226  1  0.73092176  0.47087513  0.26899742  1  -0.005797  0  -0.08533  -0.1304  0  3.967823  0
C  C227  1  0.76906671  0.52912700  0.76899891  1  -0.005794  0  -0.085344  -0.130285  0  3.967515  0
C  C228  1  0.32901463  0.58850287  0.73155946  1  -0.099725  0  -0.087221  -0.111364  0  4.024073  0
C  C229  1  0.17100515  0.41149541  0.23156091  1  -0.100081  0  -0.087119  -0.111161  0  4.023661  0
C  C230  1  0.67099091  0.41149776  0.26844106  1  -0.100331  0  -0.087153  -0.111245  0  4.023981  0
C  C231  1  0.82899611  0.58850392  0.76844413  1  -0.10056  0  -0.087153  -0.111143  0  4.023707  0
C  C232  1  0.46519588  0.60951928  0.70629832  1  -0.203918  0  -0.018311  -0.095041  0  3.996477  0
C  C233  1  0.03481686  0.39047278  0.20630134  1  -0.204012  0  -0.018469  -0.09523  0  3.996523  0
C  C234  1  0.53481848  0.39047695  0.29370370  1  -0.204058  0  -0.018384  -0.095102  0  3.99658  0
C  C235  1  0.96519964  0.60952607  0.79370098  1  -0.203825  0  -0.018431  -0.095158  0  3.996343  0
C  C236  1  0.54342300  0.57131971  0.68101515  1  -0.0615  0  -0.077315  -0.089912  0  3.975414  0
C  C237  1  0.95658713  0.42867485  0.18101838  1  -0.06106  0  -0.077238  -0.089837  0  3.975037  0
C  C238  1  0.45658824  0.42867475  0.31898627  1  -0.06121  0  -0.077368  -0.090016  0  3.975414  0
C  C239  1  0.04342923  0.57132752  0.81898575  1  -0.061784  0  -0.07722  -0.089839  0  3.975143  0
C  C240  1  0.48489186  0.51148121  0.68145541  1  -0.001738  0  -0.078723  -0.117493  0  3.944363  0
C  C241  1  0.01511443  0.48851430  0.18145623  1  -0.001824  0  -0.078667  -0.117548  0  3.944137  0
C  C242  1  0.51510670  0.48851372  0.31854812  1  -0.002098  0  -0.078728  -0.117429  0  3.944304  0
C  C243  1  0.98490064  0.51148807  0.81854609  1  -0.001916  0  -0.078822  -0.117747  0  3.944197  0
C  C244  1  0.09717288  0.28261356  0.55647411  1  -0.045603  0  -0.001897  0.086902  0  3.977212  0
C  C245  1  0.40283115  0.71738907  0.05647763  1  -0.045527  0  -0.002112  0.086535  0  3.97785  0
C  C246  1  0.90284405  0.71738662  0.44352641  1  -0.045276  0  -0.001906  0.086863  0  3.977534  0
C  C247  1  0.59717068  0.28261597  0.94352349  1  -0.045427  0  -0.001978  0.086711  0  3.977653  0
C  C248  1  0.98738691  0.31666020  0.53524842  1  0.00833  0  -0.088518  -0.129544  0  3.98458  0
C  C249  1  0.51261344  0.68334107  0.03525185  1  0.007965  0  -0.088513  -0.129632  0  3.984948  0
C  C250  1  0.01262275  0.68333735  0.46475239  1  0.008224  0  -0.088498  -0.129673  0  3.984905  0
C  C251  1  0.48739209  0.31666353  0.96475198  1  0.008279  0  -0.088487  -0.129512  0  3.984671  0
C  C252  1  0.97395840  0.31345804  0.49343395  1  -0.047644  0  -0.087328  -0.091876  0  3.995659  0
C  C253  1  0.52603165  0.68654033  0.99343741  1  -0.04989  0  -0.087219  -0.091838  0  3.995712  0
C  C254  1  0.02604343  0.68653908  0.50656626  1  -0.046033  0  -0.087372  -0.091953  0  3.995733  0
C  C255  1  0.47396249  0.31345680  0.00656642  1  -0.047717  0  -0.087305  -0.091868  0  3.995704  0
C  C256  1  0.07078732  0.27580778  0.47204925  1  -0.184626  0  -0.017175  -0.061763  0  3.948081  0
C  C257  1  0.42919517  0.72419110  0.97205317  1  -0.18085  0  -0.017163  -0.061583  0  3.947771  0
C  C258  1  0.92921636  0.72419110  0.52795187  1  -0.186755  0  -0.017152  -0.06151  0  3.947908  0
C  C259  1  0.57078261  0.27579903  0.02794825  1  -0.184815  0  -0.017222  -0.061791  0  3.948184  0
C  C260  1  0.18389228  0.24278552  0.49254992  1  0.000601  0  -0.088492  -0.10015  0  4.01178  0
C  C261  1  0.31611152  0.75721683  0.99255444  1  -0.000676  0  -0.088526  -0.100339  0  4.011495  0
C  C262  1  0.81613660  0.75721991  0.50745240  1  0.000854  0  -0.088465  -0.100285  0  4.011445  0
C  C263  1  0.68387238  0.24277637  0.00744698  1  0.000683  0  -0.088517  -0.100194  0  4.011453  0
C  C264  1  0.19732678  0.24650174  0.53430713  1  -0.106946  0  -0.088421  -0.126645  0  3.987979  0
C  C265  1  0.30269315  0.75350569  0.03431192  1  -0.107192  0  -0.088383  -0.126458  0  3.987915  0
C  C266  1  0.80270581  0.75350325  0.46569338  1  -0.107294  0  -0.088434  -0.126618  0  3.988031  0
C  C267  1  0.69730910  0.24649671  0.96568980  1  -0.107301  0  -0.088317  -0.126475  0  3.98781  0
C  C268  1  0.85052043  0.07526806  0.70371614  1  0.052301  0  -0.00247  0.082478  0  3.998195  0
C  C269  1  0.64947553  0.92473095  0.20372264  1  0.052055  0  -0.00236  0.082497  0  3.998102  0
C  C270  1  0.14946404  0.92473481  0.29628347  1  0.052523  0  -0.002414  0.08248  0  3.99785  0
C  C271  1  0.35054382  0.07527274  0.79627577  1  0.052437  0  -0.002449  0.082337  0  3.99791  0
C  C272  1  0.92955962  0.03094971  0.72356666  1  -0.073029  0  -0.086151  -0.129002  0  3.955746  0
C  C273  1  0.57044110  0.96904531  0.22357757  1  -0.072837  0  -0.086329  -0.129202  0  3.956411  0
C  C274  1  0.07043937  0.96905050  0.27642692  1  -0.072797  0  -0.086197  -0.129045  0  3.956084  0
C  C275  1  0.42956273  0.03095797  0.77641511  1  -0.072933  0  -0.086443  -0.129157  0  3.956579  0
C  C276  1  0.86214751  0.97232714  0.72057751  1  -0.044164  0  -0.076639  -0.071813  0  3.934245  0
C  C277  1  0.63783012  0.02766830  0.22059147  1  -0.044719  0  -0.076652  -0.071766  0  3.934644  0
C  C278  1  0.13784364  0.02767264  0.27941487  1  -0.044743  0  -0.076683  -0.071865  0  3.934488  0
C  C279  1  0.36215348  0.97233590  0.77939458  1  -0.041462  0  -0.076707  -0.071903  0  3.9348  0
C  C280  1  0.71234374  0.95771345  0.69794439  1  -0.170444  0  -0.012244  -0.062788  0  3.944416  0
C  C281  1  0.78763069  0.04228328  0.19795525  1  -0.15191  0  -0.012478  -0.063352  0  3.944952  0
C  C282  1  0.28764001  0.04228722  0.30205643  1  -0.170866  0  -0.012264  -0.062789  0  3.9447  0
C  C283  1  0.21235263  0.95771607  0.80203412  1  -0.151799  0  -0.012545  -0.063716  0  3.945326  0
C  C284  1  0.63004089  0.00099000  0.67841314  1  -0.013884  0  -0.084044  -0.095036  0  3.991905  0
C  C285  1  0.86992495  0.99901075  0.17841874  1  -0.032455  0  -0.083985  -0.094873  0  3.992068  0
C  C286  1  0.36992150  0.99901203  0.32159220  1  -0.003104  0  -0.084033  -0.095238  0  3.99241  0
C  C287  1  0.13007645  0.00098901  0.82157394  1  -0.032862  0  -0.083898  -0.094632  0  3.991797  0
C  C288  1  0.70016641  0.05952783  0.68123732  1  -0.104013  0  -0.088259  -0.130718  0  3.980589  0
C  C289  1  0.79981696  0.94047118  0.18124042  1  -0.103635  0  -0.088249  -0.130636  0  3.980549  0
C  C290  1  0.29980624  0.94047418  0.31876681  1  -0.10424  0  -0.088214  -0.130436  0  3.980496  0
C  C291  1  0.20020025  0.05952987  0.81875768  1  -0.103722  0  -0.088314  -0.130798  0  3.980453  0
S  S292  1  0.53136681  0.68617304  0.70669866  1  3.17578  0  0.466865  1.199373  0  6.252897  0
S  S293  1  0.96864625  0.31382293  0.20670272  1  3.176547  0  0.466912  1.199301  0  6.253381  0
S  S294  1  0.46865524  0.31382317  0.29330065  1  3.175621  0  0.466908  1.199457  0  6.25314  0
S  S295  1  0.03135587  0.68617903  0.79329810  1  3.17624  0  0.466912  1.199501  0  6.253209  0
S  S296  1  0.05499083  0.27007762  0.41848165  1  3.16571  0  0.437557  1.164449  0  6.321971  0
S  S297  1  0.44496617  0.72990570  0.91848355  1  3.166912  0  0.437436  1.164359  0  6.321079  0
S  S298  1  0.94497926  0.72990065  0.58152067  1  3.167213  0  0.437423  1.164285  0  6.321323  0
S  S299  1  0.55499851  0.27006774  0.08151606  1  3.166018  0  0.437207  1.164016  0  6.322611  0
S  S300  1  0.62344056  0.88285200  0.69689940  1  3.140022  0  0.419627  1.143523  0  6.313685  0
S  S301  1  0.87651403  0.11714694  0.19690723  1  3.139884  0  0.419954  1.144125  0  6.313569  0
S  S302  1  0.37653522  0.11714780  0.30310021  1  3.139782  0  0.419707  1.143626  0  6.313748  0
S  S303  1  0.12348040  0.88285503  0.80307491  1  3.142079  0  0.419841  1.144282  0  6.312853  0
N  N304  1  0.02664516  0.22234230  0.74861047  1  -1.104492  0  -0.359935  -0.249256  0  3.615909  0
N  N305  1  0.47333709  0.77766035  0.24861952  1  -1.104163  0  -0.360064  -0.249271  0  3.616064  0
N  N306  1  0.97333389  0.77765970  0.25138854  1  -1.104568  0  -0.359991  -0.249103  0  3.615858  0
N  N307  1  0.52667542  0.22234599  0.75138461  1  -1.104655  0  -0.360015  -0.24931  0  3.616101  0
N  N308  1  0.18064261  0.34085525  0.74902527  1  -1.103127  0  -0.360436  -0.248221  0  3.616362  0
N  N309  1  0.31936585  0.65914517  0.24902806  1  -1.10263  0  -0.360478  -0.24817  0  3.616377  0
N  N310  1  0.81935111  0.65914453  0.25097585  1  -1.103491  0  -0.360428  -0.248128  0  3.616238  0
N  N311  1  0.68064680  0.34085765  0.75097396  1  -1.102769  0  -0.360494  -0.248162  0  3.616532  0
N  N312  1  0.16428025  0.34309052  0.66253578  1  -1.113854  0  -0.363156  -0.256873  0  3.638185  0
N  N313  1  0.33571805  0.65691078  0.16253769  1  -1.113982  0  -0.363143  -0.256787  0  3.638018  0
N  N314  1  0.83571702  0.65691233  0.33746564  1  -1.113926  0  -0.363213  -0.257036  0  3.638144  0
N  N315  1  0.66428350  0.34309338  0.83746282  1  -1.113604  0  -0.363162  -0.256743  0  3.638358  0
N  N316  1  0.04433321  0.22130079  0.66222559  1  -1.12626  0  -0.362921  -0.257598  0  3.6401  0
N  N317  1  0.45566293  0.77869787  0.16222978  1  -1.12645  0  -0.362922  -0.257752  0  3.640542  0
N  N318  1  0.95565566  0.77869988  0.33777312  1  -1.126039  0  -0.362924  -0.257782  0  3.64019  0
N  N319  1  0.54434431  0.22130408  0.83777164  1  -1.126089  0  -0.362897  -0.257618  0  3.640408  0
O  O320  1  0.53469115  0.70419516  0.74958153  1  -1.362731  0  -0.500901  -0.735093  0  2.264774  0
O  O321  1  0.96530583  0.29580831  0.24958633  1  -1.363084  0  -0.500991  -0.735053  0  2.265105  0
O  O322  1  0.46534101  0.29580455  0.25041747  1  -1.362872  0  -0.50094  -0.735154  0  2.264841  0
O  O323  1  0.03468604  0.70419367  0.75041478  1  -1.36303  0  -0.500987  -0.735134  0  2.265047  0
O  O324  1  0.39651947  0.71369346  0.68424054  1  -1.362871  0  -0.487165  -0.73349  0  2.220211  0
O  O325  1  0.10349793  0.28629638  0.18425247  1  -1.363451  0  -0.487083  -0.733403  0  2.220123  0
O  O326  1  0.60349191  0.28630145  0.31575937  1  -1.363177  0  -0.487088  -0.733502  0  2.220392  0
O  O327  1  0.89649166  0.71369857  0.81574835  1  -1.363156  0  -0.487157  -0.733496  0  2.220087  0
O  O328  1  0.70088004  0.69526058  0.68753422  1  -1.350756  0  -0.411137  -0.665403  0  2.240219  0
O  O329  1  0.79914539  0.30473277  0.18753324  1  -1.350539  0  -0.411096  -0.665363  0  2.240154  0
O  O330  1  0.29913874  0.30473739  0.31246268  1  -1.350319  0  -0.411165  -0.665436  0  2.240203  0
O  O331  1  0.20085488  0.69527139  0.81246607  1  -1.350531  0  -0.411023  -0.665343  0  2.240276  0
O  O332  1  0.86993903  0.26450673  0.40788621  1  -1.351136  0  -0.416501  -0.693466  0  2.088797  0
O  O333  1  0.63001212  0.73554229  0.90788163  1  -1.351742  0  -0.416473  -0.69349  0  2.088603  0
O  O334  1  0.13002406  0.73552521  0.59212365  1  -1.352075  0  -0.416535  -0.693494  0  2.088778  0
O  O335  1  0.36995338  0.26450899  0.09211617  1  -1.351449  0  -0.416543  -0.693438  0  2.088869  0
O  O336  1  0.14587083  0.32505030  0.40224964  1  -1.346813  0  -0.444961  -0.694666  0  2.112358  0
O  O337  1  0.35424678  0.67490074  0.90225806  1  -1.346645  0  -0.444793  -0.6946  0  2.112268  0
O  O338  1  0.85423710  0.67489827  0.59774033  1  -1.346892  0  -0.444813  -0.694679  0  2.112353  0
O  O339  1  0.64591868  0.32503145  0.09775271  1  -1.346455  0  -0.444923  -0.694561  0  2.112358  0
O  O340  1  0.14081525  0.21788065  0.40820423  1  -1.355339  0  -0.447645  -0.668676  0  2.187187  0
O  O341  1  0.35897123  0.78206450  0.90819943  1  -1.355918  0  -0.447898  -0.668757  0  2.186889  0
O  O342  1  0.85901292  0.78206313  0.59180744  1  -1.35594  0  -0.447822  -0.668561  0  2.18694  0
O  O343  1  0.64078874  0.21786269  0.09178873  1  -1.355633  0  -0.447483  -0.668505  0  2.187603  0
O  O344  1  0.46956861  0.87808229  0.67105402  1  -1.344727  0  -0.409935  -0.657898  0  2.12256  0
O  O345  1  0.03035069  0.12191537  0.17105076  1  -1.344335  0  -0.410124  -0.658249  0  2.122548  0
O  O346  1  0.53038951  0.12191843  0.32895222  1  -1.344527  0  -0.410068  -0.658035  0  2.122582  0
O  O347  1  0.96961227  0.87808447  0.82891962  1  -1.344835  0  -0.410453  -0.658483  0  2.122362  0
O  O348  1  0.58144880  0.86910343  0.73974260  1  -1.349287  0  -0.527951  -0.698246  0  2.244485  0
O  O349  1  0.91855804  0.13090026  0.23974734  1  -1.349545  0  -0.528047  -0.698408  0  2.24452  0
O  O350  1  0.41856642  0.13089543  0.26025882  1  -1.349383  0  -0.527848  -0.698241  0  2.244531  0
O  O351  1  0.08150444  0.86910203  0.76023148  1  -1.350342  0  -0.527894  -0.698134  0  2.243939  0
O  O352  1  0.75794899  0.84752315  0.68212417  1  -1.343776  0  -0.44468  -0.667214  0  2.16109  0
O  O353  1  0.74198488  0.15247333  0.18214251  1  -1.343552  0  -0.444553  -0.667139  0  2.161034  0
O  O354  1  0.24202138  0.15247975  0.31786791  1  -1.34382  0  -0.444681  -0.667242  0  2.16108  0
O  O355  1  0.25800143  0.84753525  0.81784957  1  -1.344468  0  -0.444386  -0.667156  0  2.161145  0
