# generated using pymatgen
data_Cd2H28C30N4O9
_symmetry_space_group_name_H-M   'P 1'
_cell_length_a   14.49228226
_cell_length_b   15.44461978
_cell_length_c   17.53206753
_cell_angle_alpha   90.00000606
_cell_angle_beta   90.00002597
_cell_angle_gamma   90.00000506
_symmetry_Int_Tables_number   1
_chemical_formula_structural   Cd2H28C30N4O9
_chemical_formula_sum   'Cd8 H112 C120 N16 O36'
_cell_volume   3924.16391768
_cell_formula_units_Z   4
loop_
 _symmetry_equiv_pos_site_id
 _symmetry_equiv_pos_as_xyz
  1  'x, y, z'
loop_
 _atom_site_type_symbol
 _atom_site_label
 _atom_site_symmetry_multiplicity
 _atom_site_fract_x
 _atom_site_fract_y
 _atom_site_fract_z
 _atom_site_occupancy
 _atom_site_pbe_bader_charge
 _atom_site_pbe_bader_spin_density
 _atom_site_pbe_cm5_charge
 _atom_site_pbe_ddec_charge
 _atom_site_pbe_ddec_spin_density
 _atom_site_pbe_ddec_sum_bond_order
 _atom_site_pbe_magmom
Cd  Cd0  1  0.87584095  0.77101746  0.95516079  1  1.263854  0  0.752089  0.853449  0  2.242004  0
Cd  Cd1  1  0.12415852  0.27101736  0.04483901  1  1.263926  0  0.752098  0.853475  0  2.241977  0
Cd  Cd2  1  0.37584092  0.77101741  0.54483944  1  1.263923  0  0.7521  0.853478  0  2.24196  0
Cd  Cd3  1  0.62415925  0.27101741  0.45516037  1  1.263919  0  0.752079  0.853445  0  2.242004  0
Cd  Cd4  1  0.92478890  0.22189222  0.41579655  1  1.254939  0  0.758871  0.859428  0  2.190041  0
Cd  Cd5  1  0.07521195  0.72189156  0.58420382  1  1.254931  0  0.75889  0.859468  0  2.189963  0
Cd  Cd6  1  0.42478820  0.22189153  0.08420351  1  1.254933  0  0.758879  0.85944  0  2.189993  0
Cd  Cd7  1  0.57521196  0.72189160  0.91579686  1  1.254932  0  0.758887  0.859436  0  2.190004  0
H  H8  1  0.88533760  0.35803996  0.53256430  1  0.668358  0  0.286956  0.39106  0  0.95159  0
H  H9  1  0.11466120  0.85803993  0.46743609  1  0.668374  0  0.286947  0.391046  0  0.95162  0
H  H10  1  0.38533779  0.35803997  0.96743590  1  0.668358  0  0.286955  0.39105  0  0.951605  0
H  H11  1  0.61466100  0.85803993  0.03256391  1  0.668374  0  0.286965  0.39108  0  0.951565  0
H  H12  1  0.98911145  0.32064701  0.54096948  1  0.618115  0  0.319946  0.405136  0  0.875953  0
H  H13  1  0.01088734  0.82064632  0.45903147  1  0.618111  0  0.319938  0.405137  0  0.875939  0
H  H14  1  0.48911165  0.32064701  0.95903075  1  0.618119  0  0.319945  0.405131  0  0.875938  0
H  H15  1  0.51088784  0.82064632  0.04096849  1  0.618115  0  0.319939  0.405123  0  0.875955  0
H  H16  1  0.11940657  0.63163814  0.82082395  1  0.083299  0  0.102233  0.098735  0  0.967273  0
H  H17  1  0.88059428  0.13163877  0.17917584  1  0.083312  0  0.102237  0.098725  0  0.967263  0
H  H18  1  0.61940576  0.63163944  0.67917560  1  0.083313  0  0.102239  0.098753  0  0.96724  0
H  H19  1  0.38059370  0.13163940  0.32082476  1  0.083322  0  0.102244  0.098716  0  0.967266  0
H  H20  1  0.11629323  0.56716003  0.98553470  1  -0.010378  0  0.082041  0.072905  0  0.994041  0
H  H21  1  0.88370554  0.06715999  0.01446509  1  -0.010384  0  0.082021  0.07288  0  0.994035  0
H  H22  1  0.61629302  0.56716002  0.51446542  1  -0.010401  0  0.082042  0.072908  0  0.99404  0
H  H23  1  0.38370575  0.06715935  0.48553494  1  -0.010399  0  0.082013  0.072858  0  0.994057  0
H  H24  1  0.05632680  0.52143148  0.90746859  1  0.08374  0  0.093327  0.100774  0  0.990039  0
H  H25  1  0.94367265  0.02143146  0.09253062  1  0.083533  0  0.093343  0.10079  0  0.990014  0
H  H26  1  0.55632733  0.52143212  0.59253150  1  0.083746  0  0.093324  0.100778  0  0.990068  0
H  H27  1  0.44367281  0.02143145  0.40746885  1  0.083738  0  0.093331  0.100767  0  0.990024  0
H  H28  1  0.20455741  0.48696381  0.84341399  1  0.042357  0  0.107773  0.099736  0  0.937568  0
H  H29  1  0.79544278  0.98696380  0.15658583  1  0.042355  0  0.107773  0.09973  0  0.937578  0
H  H30  1  0.70455728  0.48696382  0.65658558  1  0.042362  0  0.10778  0.099736  0  0.937567  0
H  H31  1  0.29544291  0.98696379  0.34341425  1  0.042354  0  0.107773  0.099732  0  0.937584  0
H  H32  1  0.35394176  0.51051701  0.90738195  1  0.05691  0  0.088979  0.08569  0  0.999738  0
H  H33  1  0.64605769  0.01051696  0.09261898  1  0.056895  0  0.088956  0.085678  0  0.99976  0
H  H34  1  0.85394160  0.51051701  0.59261825  1  0.056917  0  0.088941  0.085621  0  0.999725  0
H  H35  1  0.14605785  0.01051696  0.40738096  1  0.056902  0  0.088951  0.08567  0  0.999764  0
H  H36  1  0.29814036  0.56214470  0.98526836  1  0.005467  0  0.083846  0.078865  0  0.987006  0
H  H37  1  0.70185840  0.06214465  0.01473200  1  0.005471  0  0.083878  0.078909  0  0.986968  0
H  H38  1  0.79814085  0.56214469  0.51473182  1  0.005464  0  0.083851  0.078863  0  0.98702  0
H  H39  1  0.20185792  0.06214466  0.48526796  1  0.005471  0  0.083843  0.078839  0  0.987007  0
H  H40  1  0.29636213  0.62366255  0.81961135  1  0.051456  0  0.097376  0.083893  0  0.971144  0
H  H41  1  0.70363802  0.12366252  0.18038902  1  0.051445  0  0.097385  0.083963  0  0.971108  0
H  H42  1  0.79636271  0.62366256  0.68038827  1  0.051468  0  0.097373  0.083889  0  0.971189  0
H  H43  1  0.20363745  0.12366251  0.31961152  1  0.051453  0  0.097381  0.083954  0  0.971152  0
H  H44  1  0.21401214  0.70977021  0.96210052  1  0.054017  0  0.086198  0.091098  0  0.995158  0
H  H45  1  0.78598733  0.20977017  0.03789985  1  0.054018  0  0.086196  0.091084  0  0.995186  0
H  H46  1  0.71401194  0.70977021  0.53789965  1  0.054011  0  0.086205  0.091099  0  0.995168  0
H  H47  1  0.28598753  0.20977018  0.46210015  1  0.054018  0  0.086197  0.091079  0  0.995188  0
H  H48  1  0.21412528  0.75418761  0.86959974  1  0.008975  0  0.079836  0.071302  0  1.017896  0
H  H49  1  0.78587489  0.25418823  0.13040007  1  0.008972  0  0.079835  0.0713  0  1.01789  0
H  H50  1  0.71412513  0.75418827  0.63039986  1  0.008968  0  0.07983  0.071296  0  1.017908  0
H  H51  1  0.28587503  0.25418823  0.36959994  1  0.008971  0  0.079834  0.071301  0  1.017891  0
H  H52  1  0.80735826  0.62200050  0.83774792  1  0.105587  0  0.113768  0.042893  0  0.989247  0
H  H53  1  0.19264190  0.12200043  0.16225130  1  0.105585  0  0.113763  0.042883  0  0.989265  0
H  H54  1  0.30735898  0.62200047  0.66225227  1  0.105576  0  0.113759  0.042886  0  0.989217  0
H  H55  1  0.69264394  0.12199917  0.33774752  1  0.10561  0  0.113767  0.042881  0  0.989282  0
H  H56  1  0.89534145  0.75313286  0.14041775  1  0.127555  0  0.124382  0.098957  0  0.970334  0
H  H57  1  0.10465871  0.25313351  0.85958205  1  0.127841  0  0.124382  0.098958  0  0.970396  0
H  H58  1  0.39534159  0.75313285  0.35958234  1  0.127561  0  0.124382  0.098972  0  0.970346  0
H  H59  1  0.60465857  0.25313352  0.64041803  1  0.127544  0  0.124372  0.098958  0  0.970329  0
H  H60  1  0.90221893  0.64015566  0.24273426  1  0.095769  0  0.109846  0.117311  0  0.997018  0
H  H61  1  0.09778053  0.14015565  0.75726553  1  0.095765  0  0.109853  0.117326  0  0.997022  0
H  H62  1  0.40221970  0.64015499  0.25726583  1  0.095767  0  0.109863  0.117336  0  0.997013  0
H  H63  1  0.59778045  0.14015567  0.74273454  1  0.095761  0  0.109862  0.117341  0  0.996988  0
H  H64  1  0.85775038  0.44802078  0.06657932  1  0.125556  0  0.122289  0.140153  0  0.972556  0
H  H65  1  0.14224981  0.94802081  0.93342050  1  0.125566  0  0.122274  0.140099  0  0.972588  0
H  H66  1  0.35775056  0.44802013  0.43342016  1  0.125554  0  0.122288  0.140149  0  0.972558  0
H  H67  1  0.64225032  0.94802081  0.56657909  1  0.125561  0  0.12229  0.140146  0  0.972542  0
H  H68  1  0.85721517  0.56905781  0.97230536  1  0.145766  0  0.126467  0.102605  0  0.98292  0
H  H69  1  0.14278428  0.06905836  0.02769500  1  0.145769  0  0.126451  0.102579  0  0.982848  0
H  H70  1  0.35721513  0.56905776  0.52769484  1  0.145762  0  0.126463  0.102598  0  0.982926  0
H  H71  1  0.64278433  0.06905841  0.47230494  1  0.145763  0  0.126469  0.102601  0  0.982902  0
H  H72  1  0.94768863  0.25452623  0.24594323  1  0.131715  0  0.127135  0.107999  0  0.990313  0
H  H73  1  0.05231153  0.75452688  0.75405714  1  0.131719  0  0.127138  0.108001  0  0.990344  0
H  H74  1  0.44768940  0.25452556  0.25405684  1  0.131693  0  0.127138  0.107991  0  0.990391  0
H  H75  1  0.55231145  0.75452690  0.74594239  1  0.131716  0  0.127136  0.107988  0  0.990345  0
H  H76  1  0.93128609  0.36442857  0.14334495  1  0.154764  0  0.11078  0.126646  0  1.046076  0
H  H77  1  0.06871409  0.86442923  0.85665543  1  0.15476  0  0.110785  0.126657  0  1.046075  0
H  H78  1  0.43128553  0.36442856  0.35665512  1  0.15477  0  0.110791  0.126675  0  1.04604  0
H  H79  1  0.56871395  0.86442859  0.64334469  1  0.154753  0  0.110774  0.126644  0  1.046092  0
H  H80  1  0.83283029  0.54301374  0.31656752  1  0.048188  0  0.108036  0.1139  0  1.001644  0
H  H81  1  0.16716917  0.04301373  0.68343226  1  0.048196  0  0.108031  0.113877  0  1.001655  0
H  H82  1  0.33283102  0.54301307  0.18343253  1  0.048211  0  0.107979  0.113806  0  1.001752  0
H  H83  1  0.66716912  0.04301376  0.81656725  1  0.048197  0  0.108033  0.113891  0  1.001658  0
H  H84  1  0.84895889  0.42287224  0.41036365  1  0.12839  0  0.121738  0.100013  0  0.991779  0
H  H85  1  0.15104060  0.92287223  0.58963675  1  0.128395  0  0.121713  0.099994  0  0.991849  0
H  H86  1  0.34895957  0.42287155  0.08963640  1  0.12839  0  0.121759  0.100061  0  0.991768  0
H  H87  1  0.65104061  0.92287227  0.91036285  1  0.128408  0  0.121722  0.100012  0  0.991831  0
H  H88  1  0.88720562  0.97374177  0.91146373  1  0.112277  0  0.118204  0.09156  0  1.011738  0
H  H89  1  0.11279457  0.47374168  0.08853723  1  0.1123  0  0.118192  0.09151  0  1.011709  0
H  H90  1  0.38720561  0.97374173  0.58853595  1  0.11227  0  0.118193  0.091543  0  1.011758  0
H  H91  1  0.61279389  0.47374172  0.41146330  1  0.112287  0  0.118178  0.091484  0  1.011735  0
H  H92  1  0.89865647  0.07282415  0.79896013  1  0.069493  0  0.108052  0.114439  0  1.000514  0
H  H93  1  0.10134368  0.57282409  0.20104022  1  0.069497  0  0.108056  0.114455  0  1.000505  0
H  H94  1  0.39865652  0.07282412  0.70104004  1  0.069502  0  0.108065  0.114446  0  1.000517  0
H  H95  1  0.60134363  0.57282347  0.29895975  1  0.06951  0  0.108058  0.114463  0  1.000522  0
H  H96  1  0.85018377  0.84933597  0.65518134  1  0.114756  0  0.115752  0.129401  0  1.002871  0
H  H97  1  0.14981640  0.34933592  0.34481904  1  0.114721  0  0.115761  0.12944  0  1.002892  0
H  H98  1  0.35018321  0.84933661  0.84481832  1  0.114758  0  0.11575  0.129392  0  1.002896  0
H  H99  1  0.64981627  0.34933593  0.15518092  1  0.114745  0  0.115744  0.129391  0  1.002891  0
H  H100  1  0.84235204  0.76056202  0.77354216  1  0.095287  0  0.124334  0.09834  0  0.993643  0
H  H101  1  0.15764743  0.26056195  0.22645822  1  0.095285  0  0.124332  0.098336  0  0.993637  0
H  H102  1  0.34235211  0.76056200  0.72645749  1  0.095281  0  0.12433  0.098344  0  0.99364  0
H  H103  1  0.65764806  0.26056198  0.27354175  1  0.095285  0  0.124333  0.098325  0  0.993647  0
H  H104  1  0.83474033  0.22730511  0.58217851  1  0.107466  0  0.116782  0.09175  0  1.028491  0
H  H105  1  0.16525914  0.72730508  0.41782129  1  0.107463  0  0.116777  0.091729  0  1.028467  0
H  H106  1  0.33474050  0.22730447  0.91782166  1  0.107477  0  0.116768  0.091739  0  1.028515  0
H  H107  1  0.66525897  0.72730509  0.08217929  1  0.107463  0  0.116777  0.091736  0  1.028461  0
H  H108  1  0.81852138  0.13778268  0.69971969  1  0.065983  0  0.106869  0.112529  0  1.004564  0
H  H109  1  0.18147877  0.63778264  0.30028068  1  0.065994  0  0.106847  0.112504  0  1.004525  0
H  H110  1  0.31852149  0.13778267  0.80028047  1  0.065988  0  0.106876  0.11253  0  1.004556  0
H  H111  1  0.68147798  0.63778266  0.19971990  1  0.065985  0  0.106865  0.112524  0  1.004578  0
H  H112  1  0.94751901  0.92688919  0.57602983  1  0.105163  0  0.111738  0.12976  0  1.023544  0
H  H113  1  0.05248048  0.42688979  0.42397056  1  0.105184  0  0.111718  0.129789  0  1.023517  0
H  H114  1  0.44751849  0.92688919  0.92396987  1  0.105159  0  0.111741  0.129766  0  1.023549  0
H  H115  1  0.55248100  0.42688914  0.07602938  1  0.105168  0  0.111732  0.129789  0  1.023484  0
H  H116  1  0.96365373  0.02709882  0.46620019  1  0.092096  0  0.126217  0.099551  0  0.973935  0
H  H117  1  0.03634572  0.52709945  0.53380017  1  0.092088  0  0.126211  0.099537  0  0.973942  0
H  H118  1  0.46365369  0.02709878  0.03379987  1  0.092093  0  0.126213  0.099544  0  0.973938  0
H  H119  1  0.53634576  0.52710014  0.96619992  1  0.092096  0  0.126232  0.099593  0  0.973896  0
C  C120  1  0.12284152  0.64424318  0.88279496  1  -0.018476  0  -0.09357  -0.112951  0  3.871304  0
C  C121  1  0.87715795  0.14424315  0.11720426  1  -0.018877  0  -0.093608  -0.11293  0  3.871232  0
C  C122  1  0.62284206  0.64424318  0.61720459  1  -0.018857  0  -0.093552  -0.112943  0  3.871263  0
C  C123  1  0.37715810  0.14424315  0.38279577  1  -0.018882  0  -0.093594  -0.112901  0  3.871208  0
C  C124  1  0.11958186  0.55586742  0.92333781  1  -0.045666  0  -0.162542  -0.166509  0  3.908704  0
C  C125  1  0.88041760  0.05586739  0.07666198  1  -0.045583  0  -0.16251  -0.166476  0  3.908643  0
C  C126  1  0.61958169  0.55586742  0.57666231  1  -0.045591  0  -0.162527  -0.166511  0  3.908722  0
C  C127  1  0.38041846  0.05586675  0.42333748  1  -0.045635  0  -0.162498  -0.166432  0  3.908646  0
C  C128  1  0.20461056  0.50067862  0.90538101  1  0.008256  0  -0.088588  -0.109228  0  3.878377  0
C  C129  1  0.79538959  0.00067924  0.09461934  1  0.008373  0  -0.088609  -0.109239  0  3.87838  0
C  C130  1  0.70461039  0.50067927  0.59461913  1  0.008192  0  -0.088604  -0.109218  0  3.878334  0
C  C131  1  0.29538975  0.00067859  0.40538065  1  0.008244  0  -0.08862  -0.109266  0  3.878431  0
C  C132  1  0.29378561  0.54985109  0.92331788  1  -0.017065  0  -0.16115  -0.168991  0  3.909213  0
C  C133  1  0.70621384  0.04985105  0.07668248  1  -0.017047  0  -0.161178  -0.169046  0  3.909238  0
C  C134  1  0.79378544  0.54985174  0.57668230  1  -0.017059  0  -0.161119  -0.168915  0  3.909142  0
C  C135  1  0.20621402  0.04985170  0.42331748  1  -0.017033  0  -0.16112  -0.168935  0  3.909184  0
C  C136  1  0.29640838  0.63746283  0.88129375  1  -0.006779  0  -0.093331  -0.102765  0  3.870009  0
C  C137  1  0.70359177  0.13746279  0.11870662  1  -0.006785  0  -0.093313  -0.102837  0  3.870076  0
C  C138  1  0.79640823  0.63746348  0.61870587  1  -0.006795  0  -0.093315  -0.10275  0  3.870112  0
C  C139  1  0.20359192  0.13746343  0.38129335  1  -0.006795  0  -0.0933  -0.102825  0  3.870113  0
C  C140  1  0.21211456  0.69259724  0.90124118  1  -0.03312  0  -0.170936  -0.178969  0  3.942355  0
C  C141  1  0.78788491  0.19259720  0.09875862  1  -0.032978  0  -0.170938  -0.178967  0  3.94236  0
C  C142  1  0.71211509  0.69259789  0.59875841  1  -0.033  0  -0.170955  -0.178996  0  3.942399  0
C  C143  1  0.28788507  0.19259720  0.40124139  1  -0.032984  0  -0.170944  -0.178981  0  3.942373  0
C  C144  1  0.03591250  0.69437066  0.90409535  1  1.527039  0  0.186579  0.575723  0  4.170713  0
C  C145  1  0.96408766  0.19437064  0.09590445  1  1.527307  0  0.186587  0.575756  0  4.170757  0
C  C146  1  0.53591234  0.69437131  0.59590418  1  1.527318  0  0.186579  0.57578  0  4.170656  0
C  C147  1  0.46408713  0.19437129  0.40409619  1  1.527311  0  0.186579  0.575757  0  4.170617  0
C  C148  1  0.20097207  0.41197395  0.94460456  1  1.535735  0  0.202849  0.589729  0  4.166443  0
C  C149  1  0.79902949  0.91197458  0.05539640  1  1.536261  0  0.202883  0.589786  0  4.166123  0
C  C150  1  0.70097189  0.41197459  0.55539557  1  1.535746  0  0.202884  0.589754  0  4.166336  0
C  C151  1  0.29902967  0.91197393  0.44460368  1  1.535749  0  0.202946  0.589809  0  4.166169  0
C  C152  1  0.38791157  0.68151248  0.89979358  1  1.532278  0  0.181862  0.576494  0  4.195745  0
C  C153  1  0.61208858  0.18151373  0.10020736  1  1.532278  0  0.181846  0.576485  0  4.19582  0
C  C154  1  0.88791141  0.68151248  0.60020665  1  1.532266  0  0.181824  0.576436  0  4.19584  0
C  C155  1  0.11208874  0.18151372  0.39979258  1  1.532272  0  0.181871  0.576528  0  4.195737  0
C  C156  1  0.73994790  0.64755115  0.85761551  1  1.486566  0  0.118546  0.441093  0  4.2602  0
C  C157  1  0.26005156  0.14755173  0.14238486  1  1.486543  0  0.118524  0.441044  0  4.260219  0
C  C158  1  0.23994792  0.64754982  0.64238409  1  1.486573  0  0.118546  0.441087  0  4.260237  0
C  C159  1  0.76005361  0.14755176  0.35761456  1  1.486604  0  0.118512  0.441057  0  4.260359  0
C  C160  1  0.88715088  0.68448565  0.12716489  1  0.45244  0  0.052094  0.094849  0  3.970231  0
C  C161  1  0.11284859  0.18448631  0.87283434  1  0.452124  0  0.052091  0.094855  0  3.970174  0
C  C162  1  0.38715103  0.68448500  0.37283463  1  0.452444  0  0.052075  0.094812  0  3.970315  0
C  C163  1  0.61284913  0.18448567  0.62716517  1  0.452433  0  0.052076  0.094801  0  3.970272  0
C  C164  1  0.88991857  0.62136012  0.18368532  1  -0.056019  0  -0.085887  -0.189893  0  3.972323  0
C  C165  1  0.11008158  0.12136076  0.81631447  1  -0.056046  0  -0.085876  -0.189886  0  3.972302  0
C  C166  1  0.38991869  0.62136010  0.31631419  1  -0.056047  0  -0.085895  -0.189905  0  3.97233  0
C  C167  1  0.61008147  0.12136077  0.68368560  1  -0.056034  0  -0.085897  -0.189908  0  3.972281  0
C  C168  1  0.87870777  0.53397952  0.16352682  1  -0.033734  0  0.010527  0.099605  0  3.999389  0
C  C169  1  0.12129238  0.03398017  0.83647353  1  -0.033725  0  0.010483  0.099522  0  3.999418  0
C  C170  1  0.37870789  0.53397951  0.33647325  1  -0.033719  0  0.010542  0.09963  0  3.999364  0
C  C171  1  0.62129225  0.03398018  0.66352654  1  -0.03372  0  0.010509  0.09955  0  3.999311  0
C  C172  1  0.86637774  0.51457535  0.08599974  1  -0.02775  0  -0.071592  -0.1606  0  3.900626  0
C  C173  1  0.13362241  0.01457601  0.91400004  1  -0.027752  0  -0.071523  -0.160442  0  3.900541  0
C  C174  1  0.36637790  0.51457535  0.41400032  1  -0.02775  0  -0.07159  -0.160598  0  3.900616  0
C  C175  1  0.63362224  0.01457601  0.58599946  1  -0.027744  0  -0.071582  -0.160564  0  3.90048  0
C  C176  1  0.86513499  0.58161811  0.03314232  1  0.478375  0  0.058561  0.109998  0  3.928875  0
C  C177  1  0.13486515  0.08161942  0.96685747  1  0.478362  0  0.058566  0.109999  0  3.928815  0
C  C178  1  0.36513519  0.58161812  0.46685775  1  0.478378  0  0.058561  0.110008  0  3.928887  0
C  C179  1  0.63486496  0.08161942  0.53314203  1  0.47835  0  0.058587  0.110026  0  3.92878  0
C  C180  1  0.92108758  0.31919276  0.25821845  1  0.459949  0  0.052552  0.097656  0  3.926651  0
C  C181  1  0.07891259  0.81919276  0.74178193  1  0.459914  0  0.052562  0.097651  0  3.92664  0
C  C182  1  0.42108835  0.31919209  0.24178219  1  0.459927  0  0.052541  0.097643  0  3.926666  0
C  C183  1  0.57891251  0.81919278  0.75821762  1  0.459943  0  0.052583  0.097697  0  3.926608  0
C  C184  1  0.91224976  0.38151996  0.20158451  1  -0.099177  0  -0.080895  -0.172063  0  3.926671  0
C  C185  1  0.08775041  0.88152062  0.79841587  1  -0.099142  0  -0.080931  -0.172136  0  3.926717  0
C  C186  1  0.41224987  0.38151995  0.29841556  1  -0.099185  0  -0.080947  -0.172164  0  3.92668  0
C  C187  1  0.58775031  0.88152063  0.70158369  1  -0.09918  0  -0.080942  -0.172167  0  3.926717  0
C  C188  1  0.88235248  0.46485125  0.22143043  1  0.085863  0  0.007463  0.093257  0  3.998009  0
C  C189  1  0.11764770  0.96485126  0.77856939  1  0.085856  0  0.007498  0.09331  0  3.998085  0
C  C190  1  0.38235257  0.46485058  0.27856963  1  0.08588  0  0.007486  0.093271  0  3.998059  0
C  C191  1  0.61764761  0.96485127  0.72143019  1  0.085861  0  0.00751  0.09337  0  3.99804  0
C  C192  1  0.85866403  0.48026115  0.29785952  1  -0.037997  0  -0.085943  -0.183429  0  3.967806  0
C  C193  1  0.14133547  0.98026115  0.70214088  1  -0.037999  0  -0.085928  -0.183374  0  3.967835  0
C  C194  1  0.35866408  0.48026047  0.20214111  1  -0.038018  0  -0.085915  -0.183311  0  3.967884  0
C  C195  1  0.64133541  0.98026118  0.79785929  1  -0.037999  0  -0.085948  -0.183448  0  3.96788  0
C  C196  1  0.86732313  0.41370464  0.35062911  1  0.484986  0  0.048797  0.101178  0  3.956804  0
C  C197  1  0.13267705  0.91370464  0.64937071  1  0.484984  0  0.048807  0.101144  0  3.956876  0
C  C198  1  0.36732316  0.41370461  0.14937038  1  0.484986  0  0.048825  0.101112  0  3.956794  0
C  C199  1  0.63267702  0.91370467  0.85062887  1  0.484984  0  0.048808  0.101154  0  3.956856  0
C  C200  1  0.87798138  0.94979880  0.85335592  1  0.489149  0  0.046852  0.08889  0  3.971049  0
C  C201  1  0.12201811  0.44979872  0.14664504  1  0.489146  0  0.046888  0.088991  0  3.970927  0
C  C202  1  0.37798141  0.94979877  0.64664376  1  0.489146  0  0.046862  0.088891  0  3.971061  0
C  C203  1  0.62201809  0.44979875  0.35335550  1  0.489148  0  0.046899  0.089019  0  3.970921  0
C  C204  1  0.88385824  0.00429349  0.79048594  1  -0.01611  0  -0.084965  -0.18199  0  3.965935  0
C  C205  1  0.11614190  0.50429343  0.20951441  1  -0.01612  0  -0.084984  -0.182039  0  3.965948  0
C  C206  1  0.38385830  0.00429282  0.70951422  1  -0.016106  0  -0.084964  -0.181985  0  3.965953  0
C  C207  1  0.61614184  0.50429281  0.29048556  1  -0.016114  0  -0.084969  -0.182023  0  3.965956  0
C  C208  1  0.87438633  0.96938943  0.71696071  1  -0.062676  0  0.010741  0.102055  0  3.982873  0
C  C209  1  0.12561316  0.46938937  0.28303968  1  -0.062681  0  0.010715  0.102053  0  3.982962  0
C  C210  1  0.37438643  0.96938942  0.78303897  1  -0.062681  0  0.010736  0.10205  0  3.982885  0
C  C211  1  0.62561307  0.46938939  0.21696029  1  -0.06269  0  0.010717  0.102015  0  3.982951  0
C  C212  1  0.85819495  0.88018037  0.71070303  1  -0.0133  0  -0.07418  -0.163197  0  3.905961  0
C  C213  1  0.14180523  0.38018031  0.28929793  1  -0.013309  0  -0.074182  -0.163287  0  3.906061  0
C  C214  1  0.35819505  0.88018036  0.78929720  1  -0.013299  0  -0.074183  -0.163189  0  3.905964  0
C  C215  1  0.64180513  0.38018033  0.21070261  1  -0.013306  0  -0.074199  -0.163236  0  3.906035  0
C  C216  1  0.85277760  0.83038699  0.77666444  1  0.514035  0  0.056784  0.108275  0  3.933311  0
C  C217  1  0.14722188  0.33038692  0.22333594  1  0.514044  0  0.056783  0.108315  0  3.933267  0
C  C218  1  0.35277766  0.83038696  0.72333521  1  0.514052  0  0.056777  0.108236  0  3.933272  0
C  C219  1  0.64722182  0.33038694  0.27666403  1  0.514037  0  0.056812  0.108352  0  3.933288  0
C  C220  1  0.86152286  0.16122450  0.58449541  1  0.500136  0  0.044781  0.089877  0  3.960507  0
C  C221  1  0.13847661  0.66122511  0.41550496  1  0.50013  0  0.044782  0.089964  0  3.960382  0
C  C222  1  0.36152372  0.16122450  0.91550419  1  0.500128  0  0.044745  0.089863  0  3.960519  0
C  C223  1  0.63847644  0.66122511  0.08449560  1  0.500122  0  0.044749  0.089895  0  3.960524  0
C  C224  1  0.85207026  0.11067421  0.64953280  1  -0.065675  0  -0.086693  -0.17977  0  3.96888  0
C  C225  1  0.14792921  0.61067417  0.35046756  1  -0.065657  0  -0.086682  -0.179792  0  3.968906  0
C  C226  1  0.35207039  0.11067420  0.85046736  1  -0.065679  0  -0.086671  -0.179727  0  3.968894  0
C  C227  1  0.64792838  0.61067483  0.14953300  1  -0.065667  0  -0.086652  -0.179755  0  3.968931  0
C  C228  1  0.88274313  0.02453937  0.64866810  1  -0.056269  0  0.009518  0.097585  0  3.991858  0
C  C229  1  0.11725632  0.52453932  0.35133225  1  -0.056267  0  0.009534  0.097564  0  3.991909  0
C  C230  1  0.38274326  0.02453936  0.85133207  1  -0.056277  0  0.009515  0.097567  0  3.991854  0
C  C231  1  0.61725619  0.52453933  0.14866829  1  -0.05628  0  0.009538  0.097606  0  3.991848  0
C  C232  1  0.92187778  0.99297758  0.58095452  1  0.092735  0  -0.077638  -0.167018  0  3.914133  0
C  C233  1  0.07812241  0.49297753  0.41904588  1  0.092722  0  -0.077609  -0.166995  0  3.914077  0
C  C234  1  0.42187726  0.99297693  0.91904518  1  0.092727  0  -0.077648  -0.167029  0  3.914098  0
C  C235  1  0.57812224  0.49297753  0.08095465  1  0.092733  0  -0.077623  -0.167015  0  3.914075  0
C  C236  1  0.93138623  0.04870117  0.51912492  1  0.498669  0  0.056919  0.106374  0  3.931011  0
C  C237  1  0.06861392  0.54870114  0.48087544  1  0.498665  0  0.05693  0.106403  0  3.931  0
C  C238  1  0.43138574  0.04870053  0.98087527  1  0.498675  0  0.056916  0.106396  0  3.93098  0
C  C239  1  0.56861371  0.54870113  0.01912509  1  0.498673  0  0.056914  0.106339  0  3.931008  0
N  N240  1  0.87471389  0.66508860  0.05326317  1  -1.228399  0  -0.31986  -0.228231  0  3.496113  0
N  N241  1  0.12528626  0.16508927  0.94673663  1  -1.228358  0  -0.319882  -0.228274  0  3.496082  0
N  N242  1  0.37471477  0.66508861  0.44673692  1  -1.228387  0  -0.319848  -0.228228  0  3.496152  0
N  N243  1  0.62528608  0.16508926  0.55326345  1  -1.22837  0  -0.319865  -0.228214  0  3.496129  0
N  N244  1  0.89949611  0.33515172  0.33140947  1  -1.225958  0  -0.329079  -0.229626  0  3.510005  0
N  N245  1  0.10050406  0.83515171  0.66859091  1  -1.225942  0  -0.329062  -0.229573  0  3.509988  0
N  N246  1  0.39949615  0.33515104  0.16859116  1  -1.225928  0  -0.329082  -0.229561  0  3.509953  0
N  N247  1  0.60050403  0.83515110  0.83140922  1  -1.225931  0  -0.329081  -0.229587  0  3.50995  0
N  N248  1  0.86255869  0.86435157  0.84672521  1  -1.212533  0  -0.321918  -0.2381  0  3.495217  0
N  N249  1  0.13744080  0.36435149  0.15327518  1  -1.212518  0  -0.321944  -0.238153  0  3.495229  0
N  N250  1  0.36255871  0.86435154  0.65327446  1  -1.212547  0  -0.321923  -0.238067  0  3.495212  0
N  N251  1  0.63744077  0.36435087  0.34672536  1  -1.212525  0  -0.321955  -0.238174  0  3.495222  0
N  N252  1  0.90221415  0.13126779  0.52080070  1  -1.228072  0  -0.323877  -0.229001  0  3.513633  0
N  N253  1  0.09778600  0.63126776  0.47919966  1  -1.228087  0  -0.323877  -0.229056  0  3.513577  0
N  N254  1  0.40221436  0.13126715  0.97919948  1  -1.228061  0  -0.323844  -0.229022  0  3.513617  0
N  N255  1  0.59778580  0.63126775  0.02080088  1  -1.228072  0  -0.323877  -0.229024  0  3.513645  0
O  O256  1  0.95834001  0.66392709  0.88211408  1  -1.185055  0  -0.351034  -0.590176  0  2.182197  0
O  O257  1  0.04166014  0.16392764  0.11788571  1  -1.185053  0  -0.351039  -0.5902  0  2.182217  0
O  O258  1  0.45834002  0.66392770  0.61788617  1  -1.185046  0  -0.351033  -0.590194  0  2.182193  0
O  O259  1  0.54166014  0.16392768  0.38211477  1  -1.185024  0  -0.351031  -0.590177  0  2.182144  0
O  O260  1  0.04222760  0.76326650  0.94424350  1  -1.175355  0  -0.350123  -0.573487  0  2.145193  0
O  O261  1  0.95777326  0.26326713  0.05575631  1  -1.175443  0  -0.3501  -0.573496  0  2.145243  0
O  O262  1  0.54222603  0.76326779  0.55575604  1  -1.175465  0  -0.350118  -0.573522  0  2.145154  0
O  O263  1  0.45777275  0.26326778  0.44424434  1  -1.175468  0  -0.350119  -0.573528  0  2.145175  0
O  O264  1  0.12162019  0.38759847  0.96870153  1  -1.156962  0  -0.337696  -0.554887  0  2.260382  0
O  O265  1  0.87838206  0.88759845  0.03129828  1  -1.157029  0  -0.337677  -0.554855  0  2.260102  0
O  O266  1  0.62161999  0.38759911  0.53129857  1  -1.156977  0  -0.337729  -0.55491  0  2.260348  0
O  O267  1  0.37838226  0.88759846  0.46870182  1  -1.15704  0  -0.337683  -0.554859  0  2.260133  0
O  O268  1  0.27319396  0.36616577  0.95133738  1  -1.224395  0  -0.342594  -0.606988  0  2.21043  0
O  O269  1  0.72680759  0.86616703  0.04866244  1  -1.224851  0  -0.342631  -0.607061  0  2.210438  0
O  O270  1  0.77319377  0.36616641  0.54866221  1  -1.224393  0  -0.342592  -0.606992  0  2.210399  0
O  O271  1  0.22680778  0.86616704  0.45133704  1  -1.224341  0  -0.342691  -0.607091  0  2.210451  0
O  O272  1  0.45331672  0.66944225  0.85107087  1  -1.154595  0  -0.355813  -0.576054  0  2.19206  0
O  O273  1  0.54668413  0.16944286  0.14892949  1  -1.154601  0  -0.355824  -0.576084  0  2.192101  0
O  O274  1  0.95331658  0.66944226  0.64892881  1  -1.154597  0  -0.355802  -0.576042  0  2.192102  0
O  O275  1  0.04668357  0.16944285  0.35107099  1  -1.154603  0  -0.355817  -0.576087  0  2.192079  0
O  O276  1  0.39834542  0.72378675  0.96103109  1  -1.198202  0  -0.367806  -0.602685  0  2.075879  0
O  O277  1  0.60165405  0.22378670  0.03896929  1  -1.198192  0  -0.3678  -0.602662  0  2.07591  0
O  O278  1  0.89834592  0.72378674  0.53896915  1  -1.198198  0  -0.367812  -0.602686  0  2.075906  0
O  O279  1  0.10165424  0.22378605  0.46103122  1  -1.198191  0  -0.367821  -0.602685  0  2.075887  0
O  O280  1  0.74262797  0.70686242  0.90964531  1  -1.149642  0  -0.349031  -0.552545  0  2.433433  0
O  O281  1  0.25737220  0.20686234  0.09035449  1  -1.149655  0  -0.34904  -0.552527  0  2.433399  0
O  O282  1  0.24262796  0.70686173  0.59035487  1  -1.149634  0  -0.349029  -0.552547  0  2.433451  0
O  O283  1  0.75737358  0.20686174  0.40964551  1  -1.149636  0  -0.349003  -0.552494  0  2.43347  0
O  O284  1  0.66617000  0.61933743  0.83003688  1  -1.163186  0  -0.333792  -0.498128  0  2.174924  0
O  O285  1  0.33383015  0.11933737  0.16996234  1  -1.163157  0  -0.333756  -0.498076  0  2.174924  0
O  O286  1  0.16617004  0.61933740  0.66996326  1  -1.163198  0  -0.333788  -0.498125  0  2.174981  0
O  O287  1  0.83383288  0.11934064  0.33003425  1  -1.163266  0  -0.333791  -0.498133  0  2.174984  0
O  O288  1  0.94416752  0.34374502  0.50521157  1  -1.260943  0  -0.576754  -0.765232  0  2.064562  0
O  O289  1  0.05583196  0.84374434  0.49478881  1  -1.260947  0  -0.576741  -0.765216  0  2.064535  0
O  O290  1  0.44416704  0.34374502  0.99478865  1  -1.260945  0  -0.576762  -0.76523  0  2.064546  0
O  O291  1  0.55583175  0.84374498  0.00521117  1  -1.26096  0  -0.576769  -0.765243  0  2.064534  0
