# generated using pymatgen
data_ZnH10C17N3O4
_symmetry_space_group_name_H-M   'P 1'
_cell_length_a   11.80103455
_cell_length_b   14.97224227
_cell_length_c   14.97222935
_cell_angle_alpha   96.36288017
_cell_angle_beta   107.27853096
_cell_angle_gamma   107.27842703
_symmetry_Int_Tables_number   1
_chemical_formula_structural   ZnH10C17N3O4
_chemical_formula_sum   'Zn4 H40 C68 N12 O16'
_cell_volume   2353.86246086
_cell_formula_units_Z   4
loop_
 _symmetry_equiv_pos_site_id
 _symmetry_equiv_pos_as_xyz
  1  'x, y, z'
loop_
 _atom_site_type_symbol
 _atom_site_label
 _atom_site_symmetry_multiplicity
 _atom_site_fract_x
 _atom_site_fract_y
 _atom_site_fract_z
 _atom_site_occupancy
 _atom_site_pbe_bader_charge
 _atom_site_pbe_bader_spin_density
 _atom_site_pbe_cm5_charge
 _atom_site_pbe_ddec_charge
 _atom_site_pbe_ddec_spin_density
 _atom_site_pbe_ddec_sum_bond_order
 _atom_site_pbe_magmom
Zn  Zn0  1  0.88307879  0.56201342  0.80499063  1  1.278735  0  0.670087  0.750167  0  2.387392  0
Zn  Zn1  1  0.11692212  0.19500887  0.43798605  1  1.278742  0  0.670076  0.750159  0  2.387388  0
Zn  Zn2  1  0.11692263  0.43798569  0.19501177  1  1.278738  0  0.67005  0.750212  0  2.387395  0
Zn  Zn3  1  0.88307741  0.80498808  0.56201433  1  1.27869  0  0.670061  0.75021  0  2.38739  0
H  H4  1  0.06857522  0.50584928  0.72798085  1  0.15246  0  0.123288  0.097342  0  0.975316  0
H  H5  1  0.93142582  0.27201832  0.49414862  1  0.15252  0  0.123267  0.097345  0  0.975327  0
H  H6  1  0.93142464  0.49414839  0.27201903  1  0.152509  0  0.123271  0.097383  0  0.97532  0
H  H7  1  0.06857591  0.72798150  0.50585126  1  0.152483  0  0.123279  0.097365  0  0.975313  0
H  H8  1  0.29630829  0.52423180  0.78575133  1  0.091211  0  0.111276  0.119011  0  1.000948  0
H  H9  1  0.70369310  0.21424916  0.47576835  1  0.091141  0  0.111268  0.11902  0  1.000978  0
H  H10  1  0.70369167  0.47576803  0.21424814  1  0.091225  0  0.111275  0.119019  0  1.000967  0
H  H11  1  0.29630783  0.78575281  0.52423159  1  0.091159  0  0.111263  0.119044  0  1.000983  0
H  H12  1  0.32607150  0.66706559  0.06318289  1  0.127781  0  0.111608  0.119981  0  1.010485  0
H  H13  1  0.67393007  0.93681646  0.33293578  1  0.127773  0  0.111602  0.119982  0  1.010486  0
H  H14  1  0.67392999  0.33293566  0.93681643  1  0.127773  0  0.111586  0.119952  0  1.010517  0
H  H15  1  0.32607022  0.06318408  0.66706585  1  0.127755  0  0.111583  0.119945  0  1.010497  0
H  H16  1  0.09279537  0.64068287  0.99282032  1  0.123639  0  0.121863  0.095453  0  0.997152  0
H  H17  1  0.90720481  0.00718052  0.35931693  1  0.123627  0  0.12188  0.095492  0  0.997177  0
H  H18  1  0.90720403  0.35931767  0.00718044  1  0.123646  0  0.12188  0.095484  0  0.997191  0
H  H19  1  0.09279548  0.99282002  0.64068336  1  0.123619  0  0.121879  0.095499  0  0.997161  0
H  H20  1  0.49170946  0.56499634  0.83619579  1  0.139229  0  0.111724  0.124047  0  1.012121  0
H  H21  1  0.50829214  0.16380465  0.43500322  1  0.139225  0  0.111733  0.124038  0  1.012137  0
H  H22  1  0.50829083  0.43500420  0.16380384  1  0.139232  0  0.111724  0.124056  0  1.012115  0
H  H23  1  0.49170847  0.83619660  0.56499589  1  0.139265  0  0.11172  0.124057  0  1.012106  0
H  H24  1  0.82123328  0.65654909  0.08866229  1  0.141592  0  0.10737  0.116377  0  1.0182  0
H  H25  1  0.17876678  0.91133746  0.34344952  1  0.141196  0  0.107379  0.116373  0  1.018185  0
H  H26  1  0.17876480  0.34344858  0.91133785  1  0.141163  0  0.107367  0.116361  0  1.018228  0
H  H27  1  0.82123317  0.08866237  0.65654995  1  0.141187  0  0.107378  0.116381  0  1.018208  0
H  H28  1  0.96571900  0.85873230  0.38946485  1  0.118774  0  0.117734  0.085575  0  1.016579  0
H  H29  1  0.03428127  0.61053545  0.14126664  1  0.118765  0  0.117738  0.085597  0  1.016569  0
H  H30  1  0.03428151  0.14126681  0.61053534  1  0.118776  0  0.117718  0.085552  0  1.016576  0
H  H31  1  0.96572023  0.38946581  0.85873268  1  0.118778  0  0.117716  0.085554  0  1.016556  0
H  H32  1  0.88030093  0.80132606  0.21130753  1  0.089868  0  0.112904  0.122747  0  0.988268  0
H  H33  1  0.11969954  0.78869278  0.19867206  1  0.089944  0  0.112919  0.122786  0  0.988252  0
H  H34  1  0.11969782  0.19867305  0.78869291  1  0.089848  0  0.11291  0.12276  0  0.988244  0
H  H35  1  0.88030252  0.21130776  0.80132731  1  0.089901  0  0.112915  0.122782  0  0.988262  0
H  H36  1  0.53937604  0.61552330  0.23860702  1  0.146058  0  0.11105  0.121513  0  1.023151  0
H  H37  1  0.46062222  0.76139228  0.38447790  1  0.145955  0  0.111038  0.121498  0  1.023181  0
H  H38  1  0.46062247  0.38447724  0.76139353  1  0.145959  0  0.111051  0.121536  0  1.023163  0
H  H39  1  0.53937653  0.23860683  0.61552388  1  0.146068  0  0.111056  0.12154  0  1.023153  0
H  H40  1  0.64277625  0.67788659  0.41778672  1  0.138074  0  0.127446  0.108838  0  0.973013  0
H  H41  1  0.35722319  0.58221261  0.32211332  1  0.137833  0  0.12745  0.108848  0  0.973065  0
H  H42  1  0.35722459  0.32211323  0.58221430  1  0.138091  0  0.127425  0.108815  0  0.973038  0
H  H43  1  0.64277732  0.41778649  0.67788554  1  0.138052  0  0.127417  0.108801  0  0.973036  0
C  C44  1  0.12914519  0.54075837  0.80202912  1  0.38704  0  0.047782  0.083055  0  3.965775  0
C  C45  1  0.87085580  0.19797039  0.45923960  1  0.387033  0  0.047798  0.083  0  3.965874  0
C  C46  1  0.87085476  0.45924145  0.19797035  1  0.387009  0  0.047755  0.082903  0  3.965882  0
C  C47  1  0.12914481  0.80203087  0.54075885  1  0.386886  0  0.047785  0.082982  0  3.965851  0
C  C48  1  0.25671374  0.55220060  0.83485223  1  0.036439  0  -0.080541  -0.16834  0  3.949503  0
C  C49  1  0.74328659  0.16514714  0.44780025  1  0.036012  0  -0.080548  -0.168343  0  3.949598  0
C  C50  1  0.74328743  0.44779994  0.16514761  1  0.036136  0  -0.080541  -0.168282  0  3.949598  0
C  C51  1  0.25671402  0.83485411  0.55220020  1  0.036257  0  -0.080538  -0.168366  0  3.949581  0
C  C52  1  0.33103129  0.59848133  0.93048270  1  -0.014403  0  0.017388  0.087426  0  3.955829  0
C  C53  1  0.66897005  0.06951691  0.40152044  1  -0.013908  0  0.017397  0.087458  0  3.955819  0
C  C54  1  0.66897087  0.40152136  0.06951893  1  -0.014176  0  0.017412  0.087453  0  3.955756  0
C  C55  1  0.33102846  0.93048363  0.59847944  1  -0.014191  0  0.017418  0.087422  0  3.955819  0
C  C56  1  0.27131159  0.63117545  0.98862187  1  0.025742  0  -0.072396  -0.145142  0  3.912238  0
C  C57  1  0.72868753  0.01137742  0.36882558  1  0.025752  0  -0.072367  -0.145166  0  3.912239  0
C  C58  1  0.72868724  0.36882580  0.01137750  1  0.025862  0  -0.072369  -0.145159  0  3.912251  0
C  C59  1  0.27131187  0.98862312  0.63117517  1  0.025736  0  -0.072349  -0.145063  0  3.91221  0
C  C60  1  0.14317664  0.61659795  0.95038438  1  0.424669  0  0.057968  0.110604  0  3.915013  0
C  C61  1  0.85682392  0.04961483  0.38340105  1  0.424662  0  0.057951  0.110586  0  3.915002  0
C  C62  1  0.85682331  0.38340187  0.04961509  1  0.424568  0  0.057939  0.110596  0  3.915043  0
C  C63  1  0.14317604  0.95038499  0.61659909  1  0.424655  0  0.057946  0.110546  0  3.915  0
C  C64  1  0.46758458  0.61289732  0.97076558  1  0.494338  0  0.120796  0.196815  0  4.017877  0
C  C65  1  0.53241592  0.02923372  0.38710400  1  0.494336  0  0.120814  0.196853  0  4.017758  0
C  C66  1  0.53241570  0.38710322  0.02923472  1  0.494348  0  0.12077  0.196806  0  4.017677  0
C  C67  1  0.46758316  0.97076610  0.61289660  1  0.494343  0  0.120833  0.196888  0  4.017788  0
C  C68  1  0.53507201  0.59202605  0.91340275  1  -0.106754  0  -0.06849  -0.166682  0  3.880971  0
C  C69  1  0.46492896  0.08659752  0.40797322  1  -0.106734  0  -0.068456  -0.166612  0  3.880943  0
C  C70  1  0.46492738  0.40797448  0.08659734  1  -0.106756  0  -0.068497  -0.16671  0  3.88091  0
C  C71  1  0.53507165  0.91340374  0.59202590  1  -0.106764  0  -0.068506  -0.166729  0  3.881  0
C  C72  1  0.66336153  0.60651955  0.95610829  1  0.098634  0  0.006492  0.041609  0  3.941551  0
C  C73  1  0.33663957  0.04389131  0.39347947  1  0.098666  0  0.006468  0.041521  0  3.941503  0
C  C74  1  0.33663810  0.39347956  0.04389102  1  0.098635  0  0.006514  0.041632  0  3.941517  0
C  C75  1  0.66336071  0.95610923  0.60652015  1  0.098724  0  0.006481  0.041579  0  3.941507  0
C  C76  1  0.72123745  0.64493319  0.05424304  1  -0.119792  0  -0.074285  -0.177163  0  3.91033  0
C  C77  1  0.27876422  0.94575600  0.35506825  1  -0.119353  0  -0.074269  -0.177051  0  3.910295  0
C  C78  1  0.27876325  0.35507022  0.94575633  1  -0.119359  0  -0.074277  -0.177109  0  3.91034  0
C  C79  1  0.72123606  0.05424453  0.64493071  1  -0.119437  0  -0.074278  -0.177139  0  3.910311  0
C  C80  1  0.64730235  0.66449738  0.10636071  1  0.539942  0  0.119583  0.194395  0  4.04168  0
C  C81  1  0.35269839  0.89363973  0.33550226  1  0.539789  0  0.119564  0.194305  0  4.041705  0
C  C82  1  0.35269728  0.33550172  0.89363994  1  0.539899  0  0.11958  0.194352  0  4.041752  0
C  C83  1  0.64730190  0.10636081  0.66449870  1  0.539953  0  0.11955  0.194366  0  4.041752  0
C  C84  1  0.87256195  0.80351732  0.35338958  1  0.432157  0  0.04672  0.082035  0  3.978225  0
C  C85  1  0.12743722  0.64661036  0.19648231  1  0.432149  0  0.046711  0.08201  0  3.978193  0
C  C86  1  0.12743801  0.19648250  0.64661123  1  0.432143  0  0.046725  0.082063  0  3.978211  0
C  C87  1  0.87256186  0.35338946  0.80351829  1  0.432153  0  0.046738  0.082075  0  3.978144  0
C  C88  1  0.82473890  0.77123016  0.25437300  1  0.034664  0  -0.084091  -0.178294  0  3.955357  0
C  C89  1  0.17526119  0.74562671  0.22876924  1  0.034636  0  -0.084092  -0.178327  0  3.955464  0
C  C90  1  0.17526106  0.22876967  0.74562714  1  0.03467  0  -0.084097  -0.178311  0  3.955364  0
C  C91  1  0.82473844  0.25437239  0.77123141  1  0.034672  0  -0.084089  -0.178321  0  3.955431  0
C  C92  1  0.70311055  0.70227695  0.21111685  1  -0.057126  0  0.017106  0.091913  0  3.983491  0
C  C93  1  0.29688843  0.78888245  0.29772235  1  -0.057259  0  0.017092  0.091936  0  3.983502  0
C  C94  1  0.29688941  0.29772287  0.78888395  1  -0.057158  0  0.017117  0.091955  0  3.983664  0
C  C95  1  0.70311032  0.21111665  0.70227876  1  -0.057127  0  0.017112  0.091936  0  3.983683  0
C  C96  1  0.63458788  0.66872786  0.27000025  1  -0.092441  0  -0.077057  -0.166668  0  3.929877  0
C  C97  1  0.36541090  0.72999915  0.33127335  1  -0.091961  0  -0.077076  -0.166682  0  3.929879  0
C  C98  1  0.36541063  0.33127267  0.73000164  1  -0.092222  0  -0.077049  -0.166689  0  3.929976  0
C  C99  1  0.63458841  0.26999924  0.66872848  1  -0.092462  0  -0.077057  -0.166709  0  3.929944  0
C  C100  1  0.69065814  0.70305696  0.36853328  1  0.503144  0  0.058081  0.109799  0  3.913511  0
C  C101  1  0.30934122  0.63146614  0.29694352  1  0.503383  0  0.058097  0.109829  0  3.913513  0
C  C102  1  0.30934182  0.29694287  0.63146753  1  0.503164  0  0.058076  0.109784  0  3.913525  0
C  C103  1  0.69065752  0.36853296  0.70305692  1  0.503174  0  0.05809  0.109838  0  3.913464  0
C  C104  1  0.73687822  0.58085626  0.89687062  1  1.59377  0  0.193804  0.558546  0  4.212077  0
C  C105  1  0.26312322  0.10312939  0.41914332  1  1.593719  0  0.193774  0.558516  0  4.212094  0
C  C106  1  0.26311906  0.41914356  0.10312622  1  1.593545  0  0.193832  0.558612  0  4.211928  0
C  C107  1  0.73687925  0.89687401  0.58085580  1  1.593773  0  0.193838  0.558611  0  4.211952  0
C  C108  1  0.91150944  0.72658316  0.72658729  1  1.594117  0  0.194675  0.467588  0  4.217402  0
C  C109  1  0.08848945  0.27341236  0.27341613  1  1.594367  0  0.194595  0.467583  0  4.217481  0
C  C110  1  0.86848320  0.64009456  0.64009804  1  1.567178  0  0.197997  0.478569  0  4.199464  0
C  C111  1  0.13151882  0.35989810  0.35990645  1  1.567137  0  0.198048  0.478509  0  4.199099  0
N  N112  1  0.07277111  0.57186980  0.85875821  1  -1.247726  0  -0.323594  -0.225167  0  3.560313  0
N  N113  1  0.92722930  0.14124099  0.42812896  1  -1.247751  0  -0.323598  -0.225143  0  3.560338  0
N  N114  1  0.92722884  0.42813002  0.14124126  1  -1.247708  0  -0.323535  -0.225089  0  3.560285  0
N  N115  1  0.07277066  0.85875883  0.57187118  1  -1.247531  0  -0.323604  -0.225145  0  3.560338  0
N  N116  1  0.52306232  0.64731824  0.06602495  1  -1.17491  0  -0.302587  -0.322494  0  3.287721  0
N  N117  1  0.47693886  0.93397531  0.35268197  1  -1.17492  0  -0.30264  -0.322567  0  3.287699  0
N  N118  1  0.47693797  0.35268230  0.93397601  1  -1.174897  0  -0.302614  -0.322541  0  3.28775  0
N  N119  1  0.52306143  0.06602523  0.64731832  1  -1.174925  0  -0.302628  -0.322557  0  3.287738  0
N  N120  1  0.80744119  0.76948205  0.40963978  1  -1.229953  0  -0.31837  -0.218382  0  3.534315  0
N  N121  1  0.19255918  0.59036037  0.23051863  1  -1.229954  0  -0.318351  -0.218382  0  3.534252  0
N  N122  1  0.19256055  0.23051777  0.59036210  1  -1.229937  0  -0.318361  -0.2184  0  3.534387  0
N  N123  1  0.80744045  0.40963874  0.76948203  1  -1.229943  0  -0.318371  -0.218417  0  3.534318  0
O  O124  1  0.68235633  0.55407631  0.80684868  1  -1.166329  0  -0.323867  -0.547114  0  2.136274  0
O  O125  1  0.31764400  0.19315071  0.44592320  1  -1.166324  0  -0.323842  -0.547078  0  2.136335  0
O  O126  1  0.31764227  0.44592637  0.19315013  1  -1.166248  0  -0.323936  -0.547218  0  2.136011  0
O  O127  1  0.68235660  0.80685055  0.55407458  1  -1.166502  0  -0.323931  -0.547214  0  2.136037  0
O  O128  1  0.85136881  0.58788477  0.94051892  1  -1.168896  0  -0.332193  -0.557259  0  2.178303  0
O  O129  1  0.14863174  0.05948015  0.41211583  1  -1.168875  0  -0.332184  -0.557259  0  2.178273  0
O  O130  1  0.14863114  0.41211505  0.05947921  1  -1.168773  0  -0.332154  -0.557248  0  2.17842  0
O  O131  1  0.85136765  0.94052039  0.58788426  1  -1.168736  0  -0.33216  -0.557237  0  2.178429  0
O  O132  1  0.92845747  0.70809650  0.80901173  1  -1.151823  0  -0.323509  -0.496279  0  2.295161  0
O  O133  1  0.07154266  0.19098771  0.29190123  1  -1.152092  0  -0.323467  -0.496261  0  2.29514  0
O  O134  1  0.07154268  0.29190762  0.19098760  1  -1.15146  0  -0.323553  -0.496461  0  2.29506  0
O  O135  1  0.92845606  0.80901139  0.70809253  1  -1.151436  0  -0.323597  -0.496462  0  2.294972  0
O  O136  1  0.85356957  0.55757686  0.65856827  1  -1.168755  0  -0.327341  -0.521209  0  2.294945  0
O  O137  1  0.14643399  0.34143073  0.44242176  1  -1.168761  0  -0.327351  -0.521126  0  2.294973  0
O  O138  1  0.14643526  0.44242583  0.34143532  1  -1.168604  0  -0.327412  -0.521308  0  2.294387  0
O  O139  1  0.85356577  0.65856480  0.55757451  1  -1.168693  0  -0.327375  -0.521278  0  2.294757  0
