# generated using pymatgen
data_CdH14C15NO7
_symmetry_space_group_name_H-M   'P 1'
_cell_length_a   6.86874224
_cell_length_b   11.76322312
_cell_length_c   22.37119709
_cell_angle_alpha   105.22747900
_cell_angle_beta   98.75182898
_cell_angle_gamma   89.99237490
_symmetry_Int_Tables_number   1
_chemical_formula_structural   CdH14C15NO7
_chemical_formula_sum   'Cd4 H56 C60 N4 O28'
_cell_volume   1722.28663907
_cell_formula_units_Z   4
loop_
 _symmetry_equiv_pos_site_id
 _symmetry_equiv_pos_as_xyz
  1  'x, y, z'
loop_
 _atom_site_type_symbol
 _atom_site_label
 _atom_site_symmetry_multiplicity
 _atom_site_fract_x
 _atom_site_fract_y
 _atom_site_fract_z
 _atom_site_occupancy
 _atom_site_pbe_bader_charge
 _atom_site_pbe_bader_spin_density
 _atom_site_pbe_cm5_charge
 _atom_site_pbe_ddec_charge
 _atom_site_pbe_ddec_spin_density
 _atom_site_pbe_ddec_sum_bond_order
 _atom_site_pbe_magmom
Cd  Cd0  1  0.57226800  0.43971768  0.25564148  1  1.337296  0  0.783669  0.963857  0  2.137404  0
Cd  Cd1  1  0.31402342  0.56045112  0.74433576  1  1.337057  0  0.78367  0.964043  0  2.13699  0
Cd  Cd2  1  0.07254729  0.81635681  0.25558094  1  1.337764  0  0.783815  0.964356  0  2.136619  0
Cd  Cd3  1  0.81417733  0.18363693  0.74450710  1  1.33731  0  0.783902  0.965047  0  2.13691  0
H  H4  1  0.84328947  0.24228758  0.21996523  1  0.668399  0  0.282113  0.386766  0  0.948354  0
H  H5  1  0.62021610  0.75782671  0.77989104  1  0.655237  0  0.281927  0.386554  0  0.948812  0
H  H6  1  0.34314275  0.97813767  0.21984901  1  0.668825  0  0.282143  0.3871  0  0.948021  0
H  H7  1  0.12041973  0.02177169  0.78002494  1  0.65748  0  0.282119  0.387015  0  0.948169  0
H  H8  1  0.63662281  0.18994510  0.22282920  1  0.631457  0  0.290015  0.38576  0  0.942014  0
H  H9  1  0.41072062  0.81026111  0.77708476  1  0.663608  0  0.289841  0.385581  0  0.94206  0
H  H10  1  0.13650809  0.03338211  0.22269746  1  0.642493  0  0.290034  0.385912  0  0.941749  0
H  H11  1  0.91087461  0.96646898  0.77705003  1  0.640052  0  0.289678  0.385469  0  0.942239  0
H  H12  1  0.40385334  0.32110312  0.92046392  1  0.081474  0  0.111375  0.118325  0  1.00005  0
H  H13  1  0.48371795  0.67964276  0.07964225  1  0.075779  0  0.111522  0.118436  0  0.999388  0
H  H14  1  0.90401505  0.59902845  0.92043648  1  0.051116  0  0.111283  0.118775  0  0.999775  0
H  H15  1  0.98352542  0.40022094  0.07997769  1  0.045326  0  0.111641  0.118869  0  0.999817  0
H  H16  1  0.35329037  0.69755883  0.99385994  1  0.067229  0  0.110005  0.116447  0  1.001255  0
H  H17  1  0.36047303  0.30323251  0.00631505  1  0.090983  0  0.110311  0.116326  0  1.002051  0
H  H18  1  0.85290678  0.29636263  0.99415263  1  0.07168  0  0.110356  0.116967  0  1.001521  0
H  H19  1  0.86071925  0.70293366  0.00619171  1  0.078597  0  0.110593  0.117059  0  1.000776  0
H  H20  1  0.62203441  0.82365016  0.37372119  1  0.102671  0  0.113718  0.111481  0  0.966925  0
H  H21  1  0.24642206  0.17657681  0.62633833  1  0.075519  0  0.114027  0.112125  0  0.967026  0
H  H22  1  0.12211896  0.55045623  0.37355694  1  0.104074  0  0.113773  0.111358  0  0.966974  0
H  H23  1  0.74685410  0.44930561  0.62625880  1  0.076198  0  0.114027  0.112363  0  0.966911  0
H  H24  1  0.43052758  0.78725925  0.41227974  1  0.089859  0  0.110396  0.096767  0  1.016708  0
H  H25  1  0.01658904  0.21305143  0.58786988  1  0.090227  0  0.11056  0.097623  0  1.01534  0
H  H26  1  0.93016503  0.62499532  0.41203437  1  0.101387  0  0.110346  0.097007  0  1.01427  0
H  H27  1  0.51681635  0.37462729  0.58783766  1  0.103726  0  0.110581  0.09751  0  1.014866  0
H  H28  1  0.31880098  0.71254996  0.88383180  1  0.103083  0  0.1233  0.101813  0  0.978862  0
H  H29  1  0.43755356  0.28804725  0.11623113  1  0.10391  0  0.123075  0.101258  0  0.979052  0
H  H30  1  0.81862801  0.17117053  0.88421735  1  0.122114  0  0.12311  0.101406  0  0.978273  0
H  H31  1  0.93803067  0.82829463  0.11601475  1  0.128575  0  0.122855  0.101094  0  0.978251  0
H  H32  1  0.99596766  0.20547899  0.42858218  1  0.095858  0  0.096647  0.104484  0  1.09615  0
H  H33  1  0.56558985  0.79489422  0.57141234  1  0.105512  0  0.096396  0.103541  0  1.097474  0
H  H34  1  0.49561020  0.22391784  0.42876185  1  0.086722  0  0.09686  0.104457  0  1.096635  0
H  H35  1  0.06560726  0.77577738  0.57109367  1  0.100039  0  0.096433  0.1039  0  1.096805  0
H  H36  1  0.36215179  0.35236090  0.81458543  1  0.174271  0  0.123774  0.108468  0  0.994939  0
H  H37  1  0.55029194  0.64816031  0.18544257  1  0.154036  0  0.123839  0.108012  0  0.995544  0
H  H38  1  0.86219287  0.46172049  0.81465586  1  0.142834  0  0.123873  0.108324  0  0.995274  0
H  H39  1  0.04999739  0.53775606  0.18564153  1  0.183742  0  0.123773  0.107288  0  0.995431  0
H  H40  1  0.50791701  0.13957393  0.55027506  1  0.080792  0  0.098044  0.103485  0  1.022876  0
H  H41  1  0.95753079  0.86017960  0.44976143  1  0.076321  0  0.097898  0.102978  0  1.021331  0
H  H42  1  0.00803550  0.41111683  0.55026424  1  0.086943  0  0.097965  0.103309  0  1.021942  0
H  H43  1  0.45820392  0.58914860  0.44963032  1  0.078279  0  0.097603  0.102762  0  1.02181  0
H  H44  1  0.22573269  0.26549363  0.52839947  1  0.05957  0  0.097158  0.093566  0  1.040764  0
H  H45  1  0.69692496  0.73448427  0.47168439  1  0.072713  0  0.097229  0.093642  0  1.041147  0
H  H46  1  0.72573568  0.26354292  0.52849786  1  0.053926  0  0.097589  0.093946  0  1.041799  0
H  H47  1  0.19733977  0.73666071  0.47145510  1  0.072845  0  0.097229  0.093819  0  1.041263  0
H  H48  1  0.57298459  0.96527249  0.46679092  1  0.074148  0  0.096717  0.108247  0  1.081178  0
H  H49  1  0.10543537  0.03459988  0.53318887  1  0.082938  0  0.096991  0.108691  0  1.08026  0
H  H50  1  0.07325173  0.50161138  0.46663218  1  0.08873  0  0.0971  0.10826  0  1.081788  0
H  H51  1  0.60617306  0.49834839  0.53318021  1  0.095517  0  0.096722  0.108094  0  1.081559  0
H  H52  1  0.39866200  0.93111300  0.63733130  1  0.077451  0  0.108736  0.103784  0  0.977837  0
H  H53  1  0.76386620  0.06945928  0.36266293  1  0.077503  0  0.108917  0.10464  0  0.976726  0
H  H54  1  0.89872790  0.70556277  0.63699351  1  0.073575  0  0.108431  0.103338  0  0.978405  0
H  H55  1  0.26363521  0.29368266  0.36266524  1  0.077939  0  0.108759  0.104546  0  0.976967  0
H  H56  1  0.55367822  0.84504326  0.67909493  1  0.117091  0  0.108311  0.100595  0  1.02001  0
H  H57  1  0.87726351  0.15534879  0.32079149  1  0.115106  0  0.108757  0.101398  0  1.018641  0
H  H58  1  0.05346122  0.83348354  0.67859940  1  0.111756  0  0.108408  0.10038  0  1.019677  0
H  H59  1  0.37723509  0.16588320  0.32091422  1  0.108225  0  0.108708  0.101339  0  1.019101  0
C  C60  1  0.41743727  0.49355412  0.03233704  1  0.065584  0  0.008503  0.095039  0  3.989973  0
C  C61  1  0.38466152  0.50722054  0.96778795  1  -0.052023  0  0.008523  0.094773  0  3.989803  0
C  C62  1  0.91746681  0.53879527  0.03243883  1  0.004816  0  0.008167  0.095096  0  3.99019  0
C  C63  1  0.88458752  0.46045773  0.96793436  1  -0.089777  0  0.00888  0.094915  0  3.988784  0
C  C64  1  0.32042731  0.98574958  0.40090165  1  0.414052  0  0.071765  0.151347  0  4.037846  0
C  C65  1  0.91800205  0.01431159  0.59908290  1  0.411783  0  0.072133  0.151836  0  4.035216  0
C  C66  1  0.82056873  0.41536925  0.40082167  1  0.381917  0  0.072322  0.154158  0  4.034792  0
C  C67  1  0.41853679  0.58445425  0.59901098  1  0.394548  0  0.071662  0.152172  0  4.034896  0
C  C68  1  0.38357915  0.41006267  0.91552607  1  -0.037223  0  -0.080176  -0.170029  0  3.935923  0
C  C69  1  0.46898070  0.59063866  0.08457788  1  -0.040622  0  -0.080109  -0.169791  0  3.933845  0
C  C70  1  0.88354915  0.50518808  0.91560346  1  0.031627  0  -0.079735  -0.17044  0  3.933676  0
C  C71  1  0.96886757  0.49411532  0.08477242  1  0.097066  0  -0.079876  -0.169962  0  3.932289  0
C  C72  1  0.40431017  0.38248559  0.04419777  1  -0.064074  0  -0.085457  -0.184461  0  3.96181  0
C  C73  1  0.35894447  0.61824395  0.95592965  1  -0.069316  0  -0.08449  -0.183339  0  3.961465  0
C  C74  1  0.90450660  0.66168455  0.04415989  1  -0.122376  0  -0.084881  -0.183737  0  3.960937  0
C  C75  1  0.85870445  0.33763989  0.95617482  1  -0.020962  0  -0.08554  -0.184672  0  3.963606  0
C  C76  1  0.75998154  0.94861801  0.60934853  1  0.461625  0  0.076445  0.164349  0  4.03546  0
C  C77  1  0.15248659  0.05161535  0.39061851  1  0.430507  0  0.075671  0.162906  0  4.039833  0
C  C78  1  0.26030705  0.66025721  0.60916779  1  0.506379  0  0.075696  0.162674  0  4.037921  0
C  C79  1  0.65242737  0.33944386  0.39063228  1  0.489909  0  0.076103  0.16212  0  4.037147  0
C  C80  1  0.46352954  0.80015376  0.36795890  1  0.359621  0  -0.067518  -0.123515  0  3.8699  0
C  C81  1  0.09363262  0.19998558  0.63215091  1  0.387745  0  -0.068407  -0.126119  0  3.871369  0
C  C82  1  0.96349537  0.56789735  0.36773560  1  0.347171  0  -0.067538  -0.123156  0  3.865794  0
C  C83  1  0.59405908  0.43183158  0.63210834  1  0.382577  0  -0.067596  -0.124612  0  3.867567  0
C  C84  1  0.44523180  0.37299867  0.10546643  1  0.464695  0  0.051652  0.098587  0  3.956692  0
C  C85  1  0.33755393  0.62762650  0.89462104  1  0.550089  0  0.051402  0.09743  0  3.957478  0
C  C86  1  0.94549603  0.73258500  0.10536655  1  0.502864  0  0.051786  0.098009  0  3.954558  0
C  C87  1  0.83745114  0.26683031  0.89490818  1  0.469358  0  0.052237  0.098504  0  3.957405  0
C  C88  1  0.12201290  0.15268839  0.43650824  1  0.001387  0  -0.114223  -0.213539  0  4.032624  0
C  C89  1  0.68396954  0.84752458  0.56349521  1  -0.043252  0  -0.113786  -0.211892  0  4.030495  0
C  C90  1  0.62180468  0.28443477  0.43660389  1  -0.015015  0  -0.114728  -0.213897  0  4.03351  0
C  C91  1  0.18427120  0.71540048  0.56326593  1  -0.050808  0  -0.1131  -0.21121  0  4.032686  0
C  C92  1  0.36173959  0.42653499  0.85563112  1  0.488158  0  0.057419  0.115279  0  3.920322  0
C  C93  1  0.50825812  0.57405266  0.14442436  1  0.505804  0  0.057067  0.115139  0  3.920656  0
C  C94  1  0.86174370  0.42873339  0.85575768  1  0.515264  0  0.056505  0.113844  0  3.921324  0
C  C95  1  0.00818207  0.57071683  0.14456473  1  0.402442  0  0.057464  0.116112  0  3.917485  0
C  C96  1  0.42178986  0.68520322  0.31679856  1  1.628157  0  0.201741  0.607165  0  4.200539  0
C  C97  1  0.10270494  0.31479891  0.68341587  1  1.61454  0  0.203912  0.609595  0  4.195633  0
C  C98  1  0.92145883  0.63174322  0.31658988  1  1.62711  0  0.202712  0.60713  0  4.196274  0
C  C99  1  0.60298589  0.36822807  0.68336731  1  1.610811  0  0.201898  0.606284  0  4.195879  0
C  C100  1  0.45579972  0.00389751  0.73742562  1  1.626877  0  0.205522  0.611786  0  4.187384  0
C  C101  1  0.72137751  0.99643717  0.26257174  1  1.622246  0  0.204335  0.609728  0  4.192395  0
C  C102  1  0.95578522  0.73328827  0.73714940  1  1.622389  0  0.205875  0.611901  0  4.185864  0
C  C103  1  0.22138836  0.26649170  0.26256081  1  1.642318  0  0.20386  0.610235  0  4.189721  0
C  C104  1  0.40953385  0.11623350  0.50533549  1  -0.042098  0  -0.106293  -0.095473  0  4.045016  0
C  C105  1  0.90366970  0.88367542  0.49470340  1  -0.011441  0  -0.106132  -0.095323  0  4.042394  0
C  C106  1  0.90964415  0.38952074  0.50533039  1  -0.056869  0  -0.106352  -0.095626  0  4.042777  0
C  C107  1  0.40427913  0.61061510  0.49457452  1  -0.04756  0  -0.106308  -0.095399  0  4.043585  0
C  C108  1  0.25154722  0.18537643  0.49348543  1  -0.049829  0  -0.1063  -0.099297  0  4.065004  0
C  C109  1  0.75729193  0.81463472  0.50656675  1  -0.05311  0  -0.106415  -0.09965  0  4.062748  0
C  C110  1  0.75150330  0.30866575  0.49354708  1  -0.039762  0  -0.106301  -0.098814  0  4.065135  0
C  C111  1  0.25776212  0.69142287  0.50635998  1  -0.05856  0  -0.106462  -0.099709  0  4.06444  0
C  C112  1  0.44558787  0.01705679  0.45840120  1  -0.010647  0  -0.112631  -0.201517  0  4.010755  0
C  C113  1  0.98624991  0.98288914  0.54158788  1  -0.048855  0  -0.112542  -0.201066  0  4.009034  0
C  C114  1  0.94573556  0.44161193  0.45831886  1  -0.023234  0  -0.112916  -0.202612  0  4.011366  0
C  C115  1  0.48689577  0.55838555  0.54151759  1  -0.03524  0  -0.112018  -0.200522  0  4.009466  0
C  C116  1  0.52099894  0.93492168  0.67604855  1  0.351997  0  -0.072254  -0.132303  0  3.861698  0
C  C117  1  0.84759163  0.06551902  0.32389129  1  0.356205  0  -0.071947  -0.132765  0  3.858799  0
C  C118  1  0.02098774  0.74061598  0.67571784  1  0.354981  0  -0.071562  -0.130746  0  3.859788  0
C  C119  1  0.34750700  0.25879758  0.32392454  1  0.349501  0  -0.071533  -0.132536  0  3.859574  0
N  N120  1  0.49743629  0.46686158  0.15480279  1  -1.210648  0  -0.318678  -0.22986  0  3.483454  0
N  N121  1  0.33992947  0.53369874  0.84525059  1  -1.208207  0  -0.319094  -0.230027  0  3.481054  0
N  N122  1  0.99761527  0.68825762  0.15479458  1  -1.184387  0  -0.319399  -0.230559  0  3.481239  0
N  N123  1  0.83998039  0.31121943  0.84545918  1  -1.187728  0  -0.318857  -0.229216  0  3.480841  0
O  O124  1  0.99400871  0.10784294  0.64816157  1  -1.0828  0  -0.180976  -0.180273  0  2.668925  0
O  O125  1  0.34776683  0.89213961  0.35185055  1  -1.088145  0  -0.180306  -0.179045  0  2.668252  0
O  O126  1  0.49461445  0.54005570  0.64812980  1  -1.084392  0  -0.181006  -0.180514  0  2.667538  0
O  O127  1  0.84822888  0.45964917  0.35167170  1  -1.082929  0  -0.180917  -0.180878  0  2.666526  0
O  O128  1  0.69859220  0.25489691  0.21091937  1  -1.275633  0  -0.59126  -0.771474  0  2.041996  0
O  O129  1  0.48450964  0.74530282  0.78899050  1  -1.294162  0  -0.591028  -0.771135  0  2.042906  0
O  O130  1  0.19845513  0.95650522  0.21076535  1  -1.286262  0  -0.591452  -0.772028  0  2.041286  0
O  O131  1  0.98460346  0.04334672  0.78907762  1  -1.272035  0  -0.591186  -0.771629  0  2.041253  0
O  O132  1  0.69279927  0.99113979  0.66520795  1  -1.085766  0  -0.181013  -0.186665  0  2.71451  0
O  O133  1  0.03017286  0.00926351  0.33470822  1  -1.084595  0  -0.180746  -0.185424  0  2.71307  0
O  O134  1  0.19288643  0.67358927  0.66499604  1  -1.081669  0  -0.180777  -0.186342  0  2.712388  0
O  O135  1  0.53001718  0.32583787  0.33472630  1  -1.086201  0  -0.180962  -0.185167  0  2.713661  0
O  O136  1  0.06457400  0.31590802  0.73699660  1  -1.171009  0  -0.320594  -0.561958  0  2.265988  0
O  O137  1  0.33030557  0.68393814  0.26323978  1  -1.175745  0  -0.319541  -0.560522  0  2.269408  0
O  O138  1  0.56449862  0.42062908  0.73690675  1  -1.172895  0  -0.319754  -0.559974  0  2.264944  0
O  O139  1  0.82961472  0.57956580  0.26306529  1  -1.177489  0  -0.319855  -0.560087  0  2.269823  0
O  O140  1  0.53108353  0.10520404  0.76632540  1  -1.174013  0  -0.333498  -0.554425  0  2.217131  0
O  O141  1  0.76805271  0.89511102  0.23371271  1  -1.169755  0  -0.333289  -0.554328  0  2.21895  0
O  O142  1  0.03129586  0.66109547  0.76618333  1  -1.165161  0  -0.333914  -0.554892  0  2.216621  0
O  O143  1  0.26801111  0.33898726  0.23368549  1  -1.160644  0  -0.33237  -0.554063  0  2.218147  0
O  O144  1  0.49435602  0.59673330  0.33371545  1  -1.171855  0  -0.333652  -0.568807  0  2.251125  0
O  O145  1  0.15843317  0.40334623  0.66655823  1  -1.167012  0  -0.334377  -0.568906  0  2.251619  0
O  O146  1  0.99410424  0.73707832  0.33348453  1  -1.171216  0  -0.334202  -0.568794  0  2.249057  0
O  O147  1  0.65889820  0.26286958  0.66655265  1  -1.169739  0  -0.33348  -0.568311  0  2.250805  0
O  O148  1  0.32086703  0.95039522  0.75393373  1  -1.199339  0  -0.324703  -0.576478  0  2.179094  0
O  O149  1  0.56988554  0.04983687  0.24607966  1  -1.199959  0  -0.324292  -0.575506  0  2.181046  0
O  O150  1  0.82067960  0.80322640  0.75355206  1  -1.200109  0  -0.324886  -0.57669  0  2.179854  0
O  O151  1  0.07000907  0.19656920  0.24603544  1  -1.214855  0  -0.324711  -0.57617  0  2.180704  0
