# generated using pymatgen
data_TmH7C9N3O8
_symmetry_space_group_name_H-M   'P 1'
_cell_length_a   6.04681705
_cell_length_b   12.81914533
_cell_length_c   13.20438281
_cell_angle_alpha   126.32175570
_cell_angle_beta   91.92054198
_cell_angle_gamma   88.19288748
_symmetry_Int_Tables_number   1
_chemical_formula_structural   TmH7C9N3O8
_chemical_formula_sum   'Tm2 H14 C18 N6 O16'
_cell_volume   824.11813421
_cell_formula_units_Z   2
loop_
 _symmetry_equiv_pos_site_id
 _symmetry_equiv_pos_as_xyz
  1  'x, y, z'
loop_
 _atom_site_type_symbol
 _atom_site_label
 _atom_site_symmetry_multiplicity
 _atom_site_fract_x
 _atom_site_fract_y
 _atom_site_fract_z
 _atom_site_occupancy
 _atom_site_hle17_bader_spin_density
 _atom_site_hle17_ddec_charge
 _atom_site_hle17_ddec_spin_density
 _atom_site_hle17_ddec_sum_bond_order
 _atom_site_hle17_magmom
 _atom_site_hse06_10hf_bader_spin_density
 _atom_site_hse06_10hf_ddec_charge
 _atom_site_hse06_10hf_ddec_spin_density
 _atom_site_hse06_10hf_ddec_sum_bond_order
 _atom_site_hse06_10hf_magmom
 _atom_site_hse06_bader_spin_density
 _atom_site_hse06_ddec_charge
 _atom_site_hse06_ddec_spin_density
 _atom_site_hse06_ddec_sum_bond_order
 _atom_site_hse06_magmom
 _atom_site_pbe_bader_spin_density
 _atom_site_pbe_cm5_charge
 _atom_site_pbe_ddec_charge
 _atom_site_pbe_ddec_spin_density
 _atom_site_pbe_ddec_sum_bond_order
 _atom_site_pbe_magmom
Tm  Tm0  1  0.23741796  0.34318650  0.15931254  1  0  2.158244  0  1.67355  0  0  1.975131  0  2.191025  0  0  2.027104  0  2.151173  0  0  1.519113  1.935909  0  2.222085  0
Tm  Tm1  1  0.76257757  0.65681331  0.84068992  1  0  2.158249  0  1.673541  0  0  1.975207  0  2.190913  0  0  2.027164  0  2.151078  0  0  1.519105  1.935951  0  2.222001  0
H  H2  1  0.31762157  0.44205513  0.80698766  1  0  0.099614  0  0.937444  0  0  0.105236  0  1.001911  0  0  0.108693  0  0.999228  0  0  0.128087  0.102627  0  1.004084  0
H  H3  1  0.68239021  0.55793708  0.19300415  1  0  0.099632  0  0.937474  0  0  0.105231  0  1.001947  0  0  0.108688  0  0.999262  0  0  0.128095  0.102624  0  1.004126  0
H  H4  1  0.88512428  0.11803753  0.91468159  1  0  0.117957  0  0.924966  0  0  0.124367  0  0.983128  0  0  0.129019  0  0.978723  0  0  0.138704  0.120871  0  0.986607  0
H  H5  1  0.11488267  0.88195972  0.08531432  1  0  0.117934  0  0.924993  0  0  0.124391  0  0.98311  0  0  0.129013  0  0.978744  0  0  0.138716  0.120895  0  0.986591  0
H  H6  1  0.64768330  0.25142334  0.05027398  1  0  0.434506  0  0.865514  0  0  0.403634  0  0.929896  0  0  0.414706  0  0.913515  0  0  0.301301  0.39582  0  0.941453  0
H  H7  1  0.35231883  0.74857629  0.94972769  1  0  0.434491  0  0.865545  0  0  0.403639  0  0.929912  0  0  0.414715  0  0.913523  0  0  0.301276  0.395824  0  0.941469  0
H  H8  1  0.50779594  0.12500233  0.93690378  1  0  0.447434  0  0.850896  0  0  0.414983  0  0.91613  0  0  0.426702  0  0.899277  0  0  0.29329  0.40674  0  0.927938  0
H  H9  1  0.49220793  0.87499849  0.06310157  1  0  0.44751  0  0.850761  0  0  0.415002  0  0.916061  0  0  0.426717  0  0.899217  0  0  0.293274  0.406757  0  0.927873  0
H  H10  1  0.24098345  0.62236492  0.33449793  1  0  0.443799  0  0.800949  0  0  0.432222  0  0.843108  0  0  0.440159  0  0.833216  0  0  0.335351  0.426577  0  0.849002  0
H  H11  1  0.75902190  0.37763254  0.66550036  1  0  0.443842  0  0.800901  0  0  0.432267  0  0.843054  0  0  0.440202  0  0.833155  0  0  0.335378  0.426615  0  0.848954  0
H  H12  1  0.06674368  0.60427485  0.23303889  1  0  0.450783  0  0.849733  0  0  0.416339  0  0.918564  0  0  0.428687  0  0.900598  0  0  0.294475  0.407667  0  0.93115  0
H  H13  1  0.93325996  0.39572245  0.76695702  1  0  0.450791  0  0.849724  0  0  0.416356  0  0.91854  0  0  0.428702  0  0.900576  0  0  0.294476  0.407683  0  0.931124  0
H  H14  1  0.38224874  0.42212176  0.46175450  1  0  0.112497  0  0.930043  0  0  0.11416  0  0.998963  0  0  0.118424  0  0.995023  0  0  0.131845  0.110978  0  1.002071  0
H  H15  1  0.61773866  0.57788403  0.53825177  1  0  0.112489  0  0.930235  0  0  0.114118  0  0.999185  0  0  0.118382  0  0.995247  0  0  0.131816  0.110937  0  1.002291  0
C  C16  1  0.40015077  0.46864720  0.89354177  1  0  0.118587  0  3.617835  0  0  0.082849  0  3.872961  0  0  0.087128  0  3.886789  0  0  0.074719  0.079811  0  3.863992  0
C  C17  1  0.59986104  0.53134333  0.10645219  1  0  0.118413  0  3.617842  0  0  0.082797  0  3.872955  0  0  0.087074  0  3.886785  0  0  0.074622  0.079758  0  3.864006  0
C  C18  1  0.31626333  0.42911403  0.96296315  1  0  0.070735  0  3.69722  0  0  0.076582  0  3.940875  0  0  0.075375  0  3.957291  0  0  0.131053  0.076936  0  3.930148  0
C  C19  1  0.68374851  0.57088017  0.03703046  1  0  0.070874  0  3.696814  0  0  0.076518  0  3.940734  0  0  0.075311  0  3.95715  0  0  0.131102  0.076867  0  3.93001  0
C  C20  1  0.10799217  0.35047762  0.92363846  1  0  0.655877  0  3.912254  0  0  0.603665  0  4.216207  0  0  0.637372  0  4.207456  0  0  0.221404  0.580909  0  4.22131  0
C  C21  1  0.89201149  0.64951793  0.07635881  1  0  0.655941  0  3.91214  0  0  0.60376  0  4.216126  0  0  0.637467  0  4.207374  0  0  0.221424  0.581009  0  4.221222  0
C  C22  1  0.16771040  0.04932934  0.08462386  1  0  0.072047  0  3.695537  0  0  0.075888  0  3.940748  0  0  0.075114  0  3.956807  0  0  0.130993  0.075793  0  3.930424  0
C  C23  1  0.83228802  0.95065728  0.91536489  1  0  0.07183  0  3.695999  0  0  0.075884  0  3.940866  0  0  0.075126  0  3.956896  0  0  0.130933  0.07579  0  3.930541  0
C  C24  1  0.93351109  0.06539060  0.95339671  1  0  0.117147  0  3.612261  0  0  0.085098  0  3.859764  0  0  0.089586  0  3.872415  0  0  0.07996  0.081984  0  3.851613  0
C  C25  1  0.06650581  0.93461015  0.04659886  1  0  0.11709  0  3.61251  0  0  0.085044  0  3.860116  0  0  0.089551  0  3.872791  0  0  0.079838  0.081933  0  3.851962  0
C  C26  1  0.36670545  0.10433323  0.17239963  1  0  0.642723  0  3.947965  0  0  0.590716  0  4.255653  0  0  0.624941  0  4.245736  0  0  0.209706  0.567607  0  4.261406  0
C  C27  1  0.63330175  0.89567115  0.82760458  1  0  0.642897  0  3.947621  0  0  0.590886  0  4.255212  0  0  0.625108  0  4.245292  0  0  0.209795  0.567773  0  4.260958  0
C  C28  1  0.87567321  0.46827238  0.39987014  1  0  0.082127  0  3.682356  0  0  0.086852  0  3.924351  0  0  0.085707  0  3.93976  0  0  0.135988  0.087185  0  3.914448  0
C  C29  1  0.12430754  0.53173339  0.60013454  1  0  0.082186  0  3.682908  0  0  0.086808  0  3.925051  0  0  0.085664  0  3.940461  0  0  0.135953  0.087141  0  3.915126  0
C  C30  1  0.21232186  0.45815418  0.47953547  1  0  0.120737  0  3.607545  0  0  0.086816  0  3.859689  0  0  0.090849  0  3.873487  0  0  0.080842  0.083878  0  3.850707  0
C  C31  1  0.78766238  0.54185579  0.52047598  1  0  0.120857  0  3.60752  0  0  0.086927  0  3.859611  0  0  0.090962  0  3.873405  0  0  0.080887  0.083986  0  3.850628  0
C  C32  1  0.74042847  0.42234135  0.28311090  1  0  0.682048  0  3.864453  0  0  0.630102  0  4.160485  0  0  0.666369  0  4.147456  0  0  0.236597  0.605422  0  4.168708  0
C  C33  1  0.25956228  0.57766361  0.71689725  1  0  0.682212  0  3.864547  0  0  0.630266  0  4.160635  0  0  0.666535  0  4.147593  0  0  0.236598  0.605601  0  4.168826  0
N  N34  1  0.58259200  0.53969902  0.93044453  1  0  -0.324457  0  3.220216  0  0  -0.278069  0  3.479732  0  0  -0.286279  0  3.495038  0  0  -0.321587  -0.272128  0  3.46938  0
N  N35  1  0.41741651  0.46029517  0.06954828  1  0  -0.324295  0  3.220487  0  0  -0.277968  0  3.479871  0  0  -0.286178  0  3.495179  0  0  -0.321486  -0.272033  0  3.46953  0
N  N36  1  0.09754116  0.11520039  0.03938491  1  0  -0.336457  0  3.226875  0  0  -0.288737  0  3.48756  0  0  -0.298043  0  3.503794  0  0  -0.352131  -0.282114  0  3.476679  0
N  N37  1  0.90246250  0.88480323  0.96060899  1  0  -0.336392  0  3.227152  0  0  -0.288738  0  3.487758  0  0  -0.298038  0  3.503971  0  0  -0.352084  -0.28211  0  3.476868  0
N  N38  1  0.08804491  0.42805424  0.38037038  1  0  -0.317943  0  3.203403  0  0  -0.27482  0  3.464137  0  0  -0.28336  0  3.48056  0  0  -0.327092  -0.268702  0  3.453083  0
N  N39  1  0.91194899  0.57195016  0.61963143  1  0  -0.317947  0  3.203949  0  0  -0.274781  0  3.464676  0  0  -0.28332  0  3.481098  0  0  -0.327083  -0.268653  0  3.453606  0
O  O40  1  0.06167846  0.31188517  0.99004506  1  0  -0.704611  0  2.078528  0  0  -0.65345  0  2.339397  0  0  -0.680225  0  2.330147  0  0  -0.406129  -0.63447  0  2.345042  0
O  O41  1  0.93831876  0.68811919  0.00995676  1  0  -0.70466  0  2.078512  0  0  -0.65349  0  2.339364  0  0  -0.680258  0  2.330107  0  0  -0.40615  -0.634505  0  2.345006  0
O  O42  1  0.99327072  0.32890626  0.83218106  1  0  -0.594388  0  1.941222  0  0  -0.548959  0  2.152315  0  0  -0.571891  0  2.141064  0  0  -0.313569  -0.533121  0  2.159691  0
O  O43  1  0.00673469  0.67109319  0.16781903  1  0  -0.594451  0  1.94112  0  0  -0.549006  0  2.152204  0  0  -0.571937  0  2.140952  0  0  -0.313591  -0.533173  0  2.159582  0
O  O44  1  0.39457083  0.22525681  0.22833127  1  0  -0.723105  0  2.069473  0  0  -0.676215  0  2.325625  0  0  -0.702999  0  2.315766  0  0  -0.395632  -0.656915  0  2.331439  0
O  O45  1  0.60541967  0.77473747  0.77167052  1  0  -0.723186  0  2.069162  0  0  -0.676335  0  2.325319  0  0  -0.703119  0  2.315466  0  0  -0.395683  -0.65703  0  2.331127  0
O  O46  1  0.49964350  0.21924440  0.01166328  1  0  -0.951297  0  1.951241  0  0  -0.900239  0  2.152405  0  0  -0.922672  0  2.122093  0  0  -0.667112  -0.883843  0  2.173286  0
O  O47  1  0.50035702  0.78075364  0.98834134  1  0  -0.951344  0  1.951144  0  0  -0.900252  0  2.152343  0  0  -0.922682  0  2.122034  0  0  -0.667046  -0.883853  0  2.173225  0
O  O48  1  0.12274363  0.56597431  0.27829438  1  0  -0.918625  0  1.874257  0  0  -0.873403  0  2.066588  0  0  -0.893853  0  2.03839  0  0  -0.629641  -0.858463  0  2.084821  0
O  O49  1  0.87726168  0.43402212  0.72170261  1  0  -0.918672  0  1.874224  0  0  -0.873458  0  2.066532  0  0  -0.893904  0  2.038326  0  0  -0.629659  -0.858518  0  2.084767  0
O  O50  1  0.48977358  0.02813085  0.17982952  1  0  -0.573121  0  1.891355  0  0  -0.530532  0  2.092499  0  0  -0.553274  0  2.082126  0  0  -0.314053  -0.514504  0  2.099076  0
O  O51  1  0.51022219  0.97187873  0.82017958  1  0  -0.573122  0  1.891091  0  0  -0.530582  0  2.092239  0  0  -0.553328  0  2.081866  0  0  -0.314087  -0.514566  0  2.09882  0
O  O52  1  0.53891371  0.45793087  0.29458040  1  0  -0.699332  0  2.029547  0  0  -0.651335  0  2.287763  0  0  -0.677605  0  2.277178  0  0  -0.375863  -0.632664  0  2.29438  0
O  O53  1  0.46106865  0.54207204  0.70542355  1  0  -0.699487  0  2.029788  0  0  -0.651434  0  2.287964  0  0  -0.677708  0  2.277383  0  0  -0.375882  -0.632774  0  2.294578  0
O  O54  1  0.84120864  0.34796702  0.18011702  1  0  -0.683629  0  2.109906  0  0  -0.628949  0  2.358547  0  0  -0.655802  0  2.350216  0  0  -0.3406  -0.609839  0  2.363433  0
O  O55  1  0.15878693  0.65203472  0.81988644  1  0  -0.68358  0  2.110019  0  0  -0.62899  0  2.358776  0  0  -0.655844  0  2.35045  0  0  -0.340557  -0.60988  0  2.36364  0
