# generated using pymatgen
data_AlH8C13N2O7
_symmetry_space_group_name_H-M   'P 1'
_cell_length_a   6.63172354
_cell_length_b   11.10919907
_cell_length_c   15.24788648
_cell_angle_alpha   84.81377991
_cell_angle_beta   77.00757309
_cell_angle_gamma   72.96682861
_symmetry_Int_Tables_number   1
_chemical_formula_structural   AlH8C13N2O7
_chemical_formula_sum   'Al2 H16 C26 N4 O14'
_cell_volume   1046.22401899
_cell_formula_units_Z   2
loop_
 _symmetry_equiv_pos_site_id
 _symmetry_equiv_pos_as_xyz
  1  'x, y, z'
loop_
 _atom_site_type_symbol
 _atom_site_label
 _atom_site_symmetry_multiplicity
 _atom_site_fract_x
 _atom_site_fract_y
 _atom_site_fract_z
 _atom_site_occupancy
 _atom_site_pbe_bader_charge
 _atom_site_pbe_bader_spin_density
 _atom_site_pbe_cm5_charge
 _atom_site_pbe_ddec_charge
 _atom_site_pbe_ddec_spin_density
 _atom_site_pbe_ddec_sum_bond_order
 _atom_site_pbe_magmom
Al  Al0  1  0.48851012  0.52660551  0.50224364  1  2.50249  0  0.393992  1.64389  0  2.576068  0
Al  Al1  1  0.99194091  0.52149811  0.50288191  1  2.503632  0  0.394987  1.640483  0  2.577945  0
H  H2  1  0.27354449  0.38865842  0.57503219  1  0.643763  0  0.342521  0.426269  0  0.879095  0
H  H3  1  0.69555886  0.67649761  0.45840475  1  0.607291  0  0.34656  0.421734  0  0.872493  0
H  H4  1  0.94275278  0.38988798  0.76853217  1  0.116149  0  0.110744  0.124694  0  0.988998  0
H  H5  1  0.12066356  0.42798864  0.23880016  1  0.06365  0  0.106379  0.120395  0  1.006204  0
H  H6  1  0.66185148  0.57246973  0.22489819  1  0.064029  0  0.102898  0.114481  0  1.007337  0
H  H7  1  0.74781055  0.55557175  0.05694056  1  0.07402  0  0.101437  0.105398  0  1.002631  0
H  H8  1  0.28457288  0.60875463  0.77849590  1  0.108012  0  0.110842  0.124279  0  0.983726  0
H  H9  1  0.21698315  0.59713599  0.94638526  1  0.06256  0  0.103114  0.104602  0  0.993311  0
H  H10  1  0.18345784  0.25637472  0.36197649  1  0.121867  0  0.112053  0.117751  0  1.024773  0
H  H11  1  0.50624122  0.13711129  0.25831008  1  0.082141  0  0.10846  0.105712  0  0.983165  0
H  H12  1  0.41002321  0.78669287  0.37744764  1  0.137035  0  0.111466  0.11555  0  1.03284  0
H  H13  1  0.61873539  0.90130757  0.26552176  1  0.075778  0  0.109654  0.107422  0  0.979828  0
H  H14  1  0.84681677  0.30385104  0.00497234  1  0.426093  0  0.299476  0.28614  0  0.957766  0
H  H15  1  0.01569766  0.27441442  0.90400806  1  0.425845  0  0.31151  0.304059  0  0.92597  0
H  H16  1  0.20023775  0.39434398  0.99883234  1  0.4614  0  0.289074  0.279592  0  1.018425  0
H  H17  1  0.04666824  0.38173222  0.10207175  1  0.437417  0  0.297101  0.289281  0  0.97124  0
C  C18  1  0.84749833  0.29916598  0.48898534  1  1.641665  0  0.270418  0.639895  0  4.120691  0
C  C19  1  0.66837892  0.51241316  0.66463188  1  1.603483  0  0.27105  0.651247  0  4.083967  0
C  C20  1  0.12869333  0.75042213  0.51350772  1  1.686492  0  0.273803  0.651127  0  4.13071  0
C  C21  1  0.31977245  0.51845861  0.34022516  1  1.537784  0  0.265334  0.639487  0  4.089028  0
C  C22  1  0.61923554  0.50105909  0.76447035  1  -0.035679  0  -0.013305  -0.014792  0  4.017464  0
C  C23  1  0.38558904  0.50083047  0.24125360  1  -0.063277  0  -0.025565  -0.037794  0  4.046609  0
C  C24  1  0.78232054  0.43284100  0.80827577  1  -0.01326  0  -0.091146  -0.203703  0  3.935562  0
C  C25  1  0.74051871  0.41603473  0.90213046  1  0.329738  0  0.092834  0.246364  0  4.076414  0
C  C26  1  0.26149000  0.45291933  0.19842643  1  -0.014704  0  -0.100616  -0.215448  0  3.943676  0
C  C27  1  0.31263149  0.43769737  0.10476977  1  0.415323  0  0.094539  0.257746  0  4.086091  0
C  C28  1  0.56666515  0.53471023  0.19084835  1  -0.015506  0  -0.110824  -0.14641  0  4.044445  0
C  C29  1  0.61408232  0.52394226  0.09770517  1  -0.044365  0  -0.098438  -0.132918  0  4.046231  0
C  C30  1  0.41124855  0.55662366  0.81350049  1  -0.062537  0  -0.094857  -0.121762  0  4.003315  0
C  C31  1  0.37416230  0.54779507  0.90693375  1  -0.035495  0  -0.09479  -0.12731  0  4.036124  0
C  C32  1  0.53526483  0.47907913  0.95295302  1  0.016839  0  -0.018253  -0.028136  0  3.9687  0
C  C33  1  0.48958110  0.47775087  0.05280596  1  -0.038276  0  -0.018189  -0.027855  0  3.955397  0
C  C34  1  0.91446269  0.15767189  0.49063009  1  0.063281  0  0.010745  -0.096129  0  3.894012  0
C  C35  1  0.10774622  0.09064024  0.43208676  1  -0.021141  0  0.012186  0.078887  0  3.935421  0
C  C36  1  0.79688744  0.09213110  0.55258842  1  0.161821  0  0.091053  0.014088  0  3.9213  0
C  C37  1  0.23147285  0.15394461  0.36612399  1  -0.065543  0  -0.079479  -0.117907  0  3.931821  0
C  C38  1  0.41298756  0.08673000  0.30825163  1  0.002802  0  -0.077563  -0.060913  0  3.999962  0
C  C39  1  0.05816072  0.89203504  0.50731160  1  0.068194  0  0.017313  -0.081221  0  3.887437  0
C  C40  1  0.87348515  0.96020587  0.56361496  1  0.240409  0  0.087629  0.004199  0  3.922098  0
C  C41  1  0.17639136  0.95542744  0.43843614  1  0.035636  0  0.008586  0.065975  0  3.939189  0
C  C42  1  0.36081124  0.88916821  0.37574552  1  -0.018498  0  -0.083274  -0.123542  0  3.945561  0
C  C43  1  0.47702476  0.95366857  0.31263648  1  -0.090189  0  -0.081894  -0.073016  0  4.017378  0
N  N44  1  0.90322235  0.34109856  0.94423142  1  -1.186258  0  -0.593488  -0.614773  0  3.323251  0
N  N45  1  0.19518395  0.38147598  0.06597679  1  -1.2465  0  -0.607329  -0.63097  0  3.378865  0
N  N46  1  0.75937434  0.89452655  0.63777256  1  0.385206  0  0.061862  0.51769  0  4.222128  0
N  N47  1  0.60010318  0.16356958  0.61515972  1  0.427019  0  0.064194  0.515685  0  4.24624  0
O  O48  1  0.66031791  0.35527675  0.47614123  1  -1.24328  0  -0.225214  -0.566022  0  2.341324  0
O  O49  1  0.85274391  0.52599620  0.62685519  1  -1.263632  0  -0.237361  -0.596015  0  2.344798  0
O  O50  1  0.99483978  0.69609466  0.50001819  1  -1.250647  0  -0.22771  -0.584479  0  2.340566  0
O  O51  1  0.44768031  0.54943792  0.37962505  1  -1.264208  0  -0.243597  -0.604737  0  2.345513  0
O  O52  1  0.31794857  0.69890361  0.52534534  1  -1.246675  0  -0.220881  -0.566435  0  2.346204  0
O  O53  1  0.13693033  0.50334845  0.37904742  1  -1.260061  0  -0.237304  -0.589861  0  2.356421  0
O  O54  1  0.98574075  0.34955096  0.50231587  1  -1.240651  0  -0.215416  -0.555831  0  2.358131  0
O  O55  1  0.52351730  0.50526998  0.62422937  1  -1.271864  0  -0.240413  -0.607133  0  2.349863  0
O  O56  1  0.25181411  0.46606353  0.53859699  1  -1.443461  0  -0.450932  -0.997481  0  2.222281  0
O  O57  1  0.73011079  0.58550505  0.46561842  1  -1.413673  0  -0.449369  -0.98717  0  2.188103  0
O  O58  1  0.87170996  0.80820675  0.67780653  1  -0.420628  0  -0.102887  -0.29022  0  1.898835  0
O  O59  1  0.55963007  0.93144483  0.65474000  1  -0.415431  0  -0.12724  -0.319575  0  1.883721  0
O  O60  1  0.42984873  0.19563678  0.58793043  1  -0.426404  0  -0.093214  -0.292473  0  1.965658  0
O  O61  1  0.62544609  0.18782205  0.68877358  1  -0.417017  0  -0.113268  -0.302091  0  1.869258  0
