# generated using pymatgen
data_Gd2Cu3H30C24(NO4)6
_symmetry_space_group_name_H-M   'P 1'
_cell_length_a   13.39133534
_cell_length_b   13.39131997
_cell_length_c   14.42613206
_cell_angle_alpha   90.00015205
_cell_angle_beta   89.99988179
_cell_angle_gamma   120.00018464
_symmetry_Int_Tables_number   1
_chemical_formula_structural   Gd2Cu3H30C24(NO4)6
_chemical_formula_sum   'Gd4 Cu6 H60 C48 N12 O48'
_cell_volume   2240.40740702
_cell_formula_units_Z   2
loop_
 _symmetry_equiv_pos_site_id
 _symmetry_equiv_pos_as_xyz
  1  'x, y, z'
loop_
 _atom_site_type_symbol
 _atom_site_label
 _atom_site_symmetry_multiplicity
 _atom_site_fract_x
 _atom_site_fract_y
 _atom_site_fract_z
 _atom_site_occupancy
 _atom_site_pbe_bader_charge
 _atom_site_pbe_bader_spin_density
 _atom_site_pbe_cm5_charge
 _atom_site_pbe_ddec_charge
 _atom_site_pbe_ddec_spin_density
 _atom_site_pbe_ddec_sum_bond_order
 _atom_site_pbe_magmom
Gd  Gd0  1  0.66666500  0.33333406  0.33191411  1  2.196351  0.002602  1.463923  2.044893  0.003532  2.2485  0.005
Gd  Gd1  1  0.33333402  0.66666570  0.16809060  1  2.196427  0.002601  1.463974  2.04499  0.003532  2.248508  0.005
Gd  Gd2  1  0.33333419  0.66666585  0.66808672  1  2.196422  0.002601  1.463939  2.044961  0.003531  2.248402  0.005
Gd  Gd3  1  0.66666913  0.33333473  0.83190953  1  2.196345  0.002601  1.463953  2.044941  0.003532  2.248566  0.005
Cu  Cu4  1  0.50000034  0.50000071  0.50000041  1  1.05043  0.579824  0.746567  0.767353  0.736036  2.21603  0.578
Cu  Cu5  1  0.49999961  0.00000013  0.49999895  1  1.049395  0.579791  0.746542  0.767385  0.736036  2.215901  0.578
Cu  Cu6  1  0.00000018  0.50000033  0.50000020  1  1.05153  0.579814  0.746579  0.767319  0.73604  2.216066  0.578
Cu  Cu7  1  0.99999970  0.49999858  0.00000035  1  1.049423  0.579801  0.74656  0.76748  0.736051  2.215862  0.578
Cu  Cu8  1  0.49999838  0.99999806  0.00000075  1  1.051535  0.57982  0.746569  0.767508  0.736049  2.215848  0.578
Cu  Cu9  1  0.49999944  0.49999893  0.99999930  1  1.050482  0.579832  0.746562  0.767499  0.736049  2.215861  0.578
H  H10  1  0.28713586  0.26056068  0.44615845  1  0.102076  0.000252  0.120349  0.122793  2.4e-05  0.970968  0.0
H  H11  1  0.73943770  0.02657608  0.44615426  1  0.062361  0.000258  0.120323  0.122757  2.4e-05  0.970961  0.0
H  H12  1  0.97342308  0.71286250  0.44615488  1  0.064824  0.000257  0.120321  0.122741  2.4e-05  0.970993  0.0
H  H13  1  0.02657844  0.73943374  0.05384415  1  0.062464  0.000258  0.120354  0.122796  2.4e-05  0.970899  0.0
H  H14  1  0.71285733  0.97342263  0.05384516  1  0.063203  0.000257  0.120337  0.122775  2.4e-05  0.970951  0.0
H  H15  1  0.26056530  0.28714002  0.05384337  1  0.10212  0.000252  0.120335  0.122783  2.4e-05  0.970968  0.0
H  H16  1  0.71286332  0.73943924  0.55384307  1  0.10207  0.000252  0.120332  0.122763  2.4e-05  0.970982  0.0
H  H17  1  0.26056148  0.97342384  0.55384241  1  0.062392  0.000258  0.120352  0.122801  2.4e-05  0.970965  0.0
H  H18  1  0.02657630  0.28714020  0.55384664  1  0.064822  0.000257  0.120317  0.122763  2.4e-05  0.970959  0.0
H  H19  1  0.97342140  0.26056253  0.94615668  1  0.062443  0.000258  0.120346  0.122788  2.4e-05  0.970927  0.0
H  H20  1  0.28714048  0.02657418  0.94615705  1  0.063216  0.000257  0.120348  0.122789  2.4e-05  0.97099  0.0
H  H21  1  0.73943518  0.71285860  0.94615538  1  0.102196  0.000252  0.120346  0.122787  2.4e-05  0.970964  0.0
H  H22  1  0.30464725  0.16880394  0.52604113  1  0.07242  0.005978  0.109886  0.105422  0.003065  0.975192  0.004
H  H23  1  0.83119358  0.13584496  0.52603781  1  0.071093  0.005988  0.109871  0.105384  0.003065  0.975218  0.004
H  H24  1  0.86415494  0.69534989  0.52603847  1  0.057168  0.006021  0.109868  0.105388  0.003065  0.975221  0.004
H  H25  1  0.13584771  0.83119271  0.97396259  1  0.071112  0.005988  0.109879  0.105406  0.003065  0.975195  0.004
H  H26  1  0.69534698  0.86415404  0.97396278  1  0.057199  0.006021  0.109872  0.105386  0.003065  0.975205  0.004
H  H27  1  0.16880707  0.30465070  0.97396191  1  0.072463  0.005978  0.109873  0.105387  0.003065  0.975243  0.004
H  H28  1  0.69535150  0.83119641  0.47396039  1  0.072401  0.005978  0.109898  0.105446  0.003065  0.975151  0.004
H  H29  1  0.16880560  0.86415496  0.47396024  1  0.071057  0.005988  0.109887  0.105423  0.003065  0.975218  0.004
H  H30  1  0.13584393  0.30464885  0.47396444  1  0.057578  0.00602  0.10986  0.105376  0.003065  0.975209  0.004
H  H31  1  0.86415202  0.16880516  0.02603893  1  0.071041  0.005987  0.1099  0.105437  0.003065  0.975199  0.004
H  H32  1  0.30465114  0.13584395  0.02603873  1  0.057196  0.006021  0.1099  0.105438  0.003065  0.975195  0.004
H  H33  1  0.83119372  0.69534911  0.02603753  1  0.072458  0.005978  0.109876  0.105396  0.003065  0.975212  0.004
H  H34  1  0.46261925  0.25950849  0.63147406  1  0.120707  0.000362  0.124657  0.134764  0.000181  0.996027  0.0
H  H35  1  0.74049157  0.20311259  0.63147234  1  0.127853  0.000355  0.124664  0.134772  0.000181  0.996046  0.0
H  H36  1  0.79688800  0.53737785  0.63147201  1  0.11791  0.000367  0.124653  0.134793  0.000181  0.996047  0.0
H  H37  1  0.20311510  0.74049044  0.86852528  1  0.127859  0.000355  0.124656  0.134751  0.000181  0.99606  0.0
H  H38  1  0.53737766  0.79688447  0.86852503  1  0.117855  0.000367  0.124631  0.134711  0.000181  0.996028  0.0
H  H39  1  0.25950694  0.46261993  0.86852557  1  0.120684  0.000362  0.12464  0.134721  0.000181  0.996032  0.0
H  H40  1  0.53737918  0.74049068  0.36852676  1  0.120719  0.000361  0.124652  0.134767  0.000181  0.996037  0.0
H  H41  1  0.25951244  0.79688699  0.36852710  1  0.127911  0.000355  0.124665  0.134784  0.000181  0.996013  0.0
H  H42  1  0.20311204  0.46262120  0.36852743  1  0.117898  0.000367  0.124648  0.134778  0.000181  0.996058  0.0
H  H43  1  0.79688667  0.25950689  0.13147624  1  0.127852  0.000356  0.124632  0.134718  0.000181  0.996061  0.0
H  H44  1  0.46262121  0.20311427  0.13147510  1  0.117869  0.000367  0.124631  0.134698  0.000181  0.996032  0.0
H  H45  1  0.74049311  0.53737912  0.13147386  1  0.1208  0.000362  0.12463  0.134713  0.000181  0.996048  0.0
H  H46  1  0.39586603  0.31242006  0.70514605  1  0.094833  0.001876  0.121485  0.128544  0.000949  0.965971  0.001
H  H47  1  0.68757994  0.08344634  0.70514341  1  0.096829  0.001876  0.121525  0.128614  0.000949  0.965922  0.001
H  H48  1  0.91655552  0.60413298  0.70514383  1  0.111537  0.001838  0.121518  0.128617  0.000949  0.965949  0.001
H  H49  1  0.08344746  0.68757728  0.79485485  1  0.096846  0.001876  0.121487  0.128561  0.000949  0.966006  0.001
H  H50  1  0.60413143  0.91655337  0.79485464  1  0.111522  0.001839  0.121487  0.128537  0.000949  0.966027  0.001
H  H51  1  0.31241994  0.39586641  0.79485358  1  0.094522  0.001877  0.121473  0.128512  0.000949  0.966  0.001
H  H52  1  0.60413582  0.68758166  0.29485408  1  0.094629  0.001877  0.121504  0.128596  0.000949  0.96596  0.001
H  H53  1  0.31241893  0.91655240  0.29485533  1  0.096809  0.001877  0.121509  0.128582  0.000949  0.965936  0.001
H  H54  1  0.08344527  0.39586682  0.29485630  1  0.111549  0.001839  0.121519  0.128637  0.000949  0.965923  0.001
H  H55  1  0.91655314  0.31241973  0.20514667  1  0.096805  0.001876  0.121481  0.128538  0.000949  0.965964  0.001
H  H56  1  0.39586689  0.08344741  0.20514619  1  0.111491  0.001839  0.121483  0.128505  0.000949  0.965993  0.001
H  H57  1  0.68757775  0.60413202  0.20514516  1  0.09473  0.001876  0.121495  0.128545  0.000949  0.965993  0.001
H  H58  1  0.32318066  0.36101073  0.58328469  1  0.499372  -0.00022  0.290841  0.252712  5.6e-05  1.015503  0.0
H  H59  1  0.63898916  0.96217022  0.58328235  1  0.496477  -0.000213  0.290833  0.252749  5.5e-05  1.015585  0.0
H  H60  1  0.03783018  0.67682051  0.58328258  1  0.501637  -0.00017  0.290818  0.252757  5.5e-05  1.015536  0.0
H  H61  1  0.96217462  0.63898870  0.91671683  1  0.496496  -0.000213  0.29087  0.25274  5.5e-05  1.015573  0.0
H  H62  1  0.67681472  0.03782575  0.91671706  1  0.501662  -0.00017  0.290879  0.252795  5.5e-05  1.015531  0.0
H  H63  1  0.36101013  0.32318139  0.91671494  1  0.499384  -0.00022  0.290863  0.252725  5.5e-05  1.015472  0.0
H  H64  1  0.67682045  0.63899025  0.41671614  1  0.49937  -0.00022  0.290824  0.252736  5.5e-05  1.015434  0.0
H  H65  1  0.36101121  0.03783002  0.41671708  1  0.496511  -0.000213  0.290859  0.252779  5.5e-05  1.015521  0.0
H  H66  1  0.96217030  0.32317812  0.41671894  1  0.50164  -0.00017  0.290859  0.252811  5.5e-05  1.015493  0.0
H  H67  1  0.03782672  0.36100906  0.08328399  1  0.496504  -0.000213  0.290864  0.252785  5.5e-05  1.015507  0.0
H  H68  1  0.32318384  0.96217181  0.08328515  1  0.501859  -0.00017  0.290882  0.252746  5.5e-05  1.015566  0.0
H  H69  1  0.63898960  0.67681649  0.08328311  1  0.499423  -0.00022  0.290889  0.252804  5.5e-05  1.015374  0.0
C  C70  1  0.44617902  0.26300887  0.43185509  1  1.59826  0.002249  0.208271  0.622646  0.001268  4.169593  0.002
C  C71  1  0.73698864  0.18317178  0.43185332  1  1.588042  0.002255  0.208178  0.622428  0.001268  4.169806  0.002
C  C72  1  0.81682827  0.55381782  0.43185370  1  1.586203  0.002249  0.2082  0.622554  0.001267  4.16963  0.002
C  C73  1  0.18317324  0.73698821  0.06814859  1  1.588289  0.002255  0.208153  0.622516  0.001267  4.169758  0.002
C  C74  1  0.55381525  0.81682673  0.06814833  1  1.585836  0.002249  0.208137  0.622486  0.001267  4.16982  0.002
C  C75  1  0.26301286  0.44618268  0.06814677  1  1.597668  0.002249  0.208191  0.622576  0.001267  4.169901  0.002
C  C76  1  0.55382016  0.73699105  0.56814504  1  1.598265  0.002249  0.208204  0.622544  0.001268  4.169567  0.002
C  C77  1  0.26300926  0.81682943  0.56814611  1  1.588124  0.002255  0.208266  0.622778  0.001268  4.169439  0.002
C  C78  1  0.18317241  0.44618359  0.56814643  1  1.585919  0.002249  0.208215  0.622586  0.001267  4.169656  0.002
C  C79  1  0.81682649  0.26300967  0.93185293  1  1.587988  0.002255  0.208208  0.622552  0.001267  4.169872  0.002
C  C80  1  0.44618212  0.18317052  0.93185249  1  1.585667  0.002249  0.208215  0.622647  0.001267  4.169839  0.002
C  C81  1  0.73699146  0.55381807  0.93185267  1  1.59774  0.002249  0.208188  0.622465  0.001267  4.169765  0.002
C  C82  1  0.34874621  0.25445502  0.49280844  1  0.237148  0.000497  -0.067715  -0.180211  0.00027  3.896689  -0.002
C  C83  1  0.74554308  0.09429191  0.49280579  1  0.280058  0.000466  -0.067674  -0.180107  0.000269  3.896669  -0.002
C  C84  1  0.90570771  0.65125206  0.49280563  1  0.288018  0.000446  -0.067696  -0.180139  0.000269  3.896666  -0.002
C  C85  1  0.09429521  0.74554097  0.00719402  1  0.279735  0.000466  -0.067709  -0.180183  0.000269  3.896617  -0.002
C  C86  1  0.65124776  0.90570631  0.00719438  1  0.289506  0.000446  -0.067701  -0.180163  0.000269  3.896641  -0.002
C  C87  1  0.25445817  0.34874894  0.00719269  1  0.237156  0.000497  -0.06768  -0.180164  0.000269  3.896642  -0.002
C  C88  1  0.65125372  0.74554565  0.50719238  1  0.237153  0.000497  -0.067716  -0.1802  0.00027  3.896628  -0.002
C  C89  1  0.25445610  0.90570801  0.50719226  1  0.280039  0.000466  -0.067737  -0.180291  0.00027  3.896733  -0.002
C  C90  1  0.09429222  0.34874860  0.50719520  1  0.287628  0.000448  -0.067686  -0.180146  0.000269  3.896641  -0.002
C  C91  1  0.90570464  0.25445530  0.99280749  1  0.28005  0.000466  -0.067751  -0.180268  0.00027  3.896658  -0.002
C  C92  1  0.34875036  0.09429168  0.99280714  1  0.289673  0.000445  -0.067765  -0.180305  0.00027  3.896734  -0.002
C  C93  1  0.74554349  0.65125000  0.99280606  1  0.237025  0.000497  -0.067718  -0.180191  0.00027  3.896718  -0.002
C  C94  1  0.44850751  0.33284690  0.64199327  1  0.2491  0.001481  -0.066182  -0.204223  0.000904  3.859568  -0.001
C  C95  1  0.66715364  0.11566092  0.64199072  1  0.235578  0.001451  -0.066266  -0.204415  0.000904  3.859719  -0.001
C  C96  1  0.88433958  0.55149221  0.64199104  1  0.226908  0.001498  -0.066269  -0.204522  0.000904  3.859846  -0.001
C  C97  1  0.11566318  0.66715129  0.85800755  1  0.235485  0.00145  -0.066234  -0.204359  0.000903  3.859802  -0.001
C  C98  1  0.55149045  0.88433628  0.85800810  1  0.227127  0.001496  -0.066189  -0.204239  0.000903  3.859669  -0.001
C  C99  1  0.33284565  0.44850767  0.85800638  1  0.248882  0.00148  -0.066157  -0.204176  0.000903  3.859527  -0.001
C  C100  1  0.55149360  0.66715408  0.35800686  1  0.249098  0.001481  -0.066227  -0.204383  0.000904  3.859715  -0.001
C  C101  1  0.33284833  0.88433920  0.35800734  1  0.235583  0.001452  -0.066241  -0.204359  0.000904  3.859525  -0.001
C  C102  1  0.11566078  0.44850802  0.35800978  1  0.226832  0.001499  -0.066223  -0.204437  0.000905  3.859895  -0.001
C  C103  1  0.88433698  0.33284616  0.14199397  1  0.235504  0.001451  -0.066168  -0.20424  0.000903  3.85962  -0.001
C  C104  1  0.44850917  0.11566321  0.14199342  1  0.227109  0.001497  -0.066136  -0.204072  0.000903  3.859532  -0.001
C  C105  1  0.66715440  0.55149138  0.14199167  1  0.248632  0.00148  -0.066187  -0.204252  0.000903  3.859613  -0.001
C  C106  1  0.56559812  0.43858321  0.66069130  1  1.585009  0.001113  0.233189  0.661672  0.000931  4.095046  0.001
C  C107  1  0.56141945  0.12701750  0.66069023  1  1.592716  0.00112  0.233153  0.661598  0.000931  4.095256  0.001
C  C108  1  0.87298600  0.43440399  0.66068962  1  1.599148  0.001115  0.233211  0.661758  0.00093  4.094928  0.001
C  C109  1  0.12702103  0.56142001  0.83929969  1  1.59275  0.001119  0.233353  0.661939  0.000929  4.094939  0.001
C  C110  1  0.43439856  0.87297463  0.83930256  1  1.598933  0.001115  0.233358  0.661874  0.000929  4.094962  0.001
C  C111  1  0.43857747  0.56559829  0.83930079  1  1.584579  0.001112  0.233274  0.661806  0.000929  4.094932  0.001
C  C112  1  0.43440503  0.56141723  0.33930744  1  1.584928  0.001113  0.2332  0.661707  0.00093  4.094999  0.001
C  C113  1  0.43858496  0.87298765  0.33930644  1  1.592691  0.00112  0.23323  0.661747  0.00093  4.094857  0.001
C  C114  1  0.12701479  0.56559581  0.33931051  1  1.599118  0.001116  0.233157  0.661598  0.00093  4.095178  0.001
C  C115  1  0.87297752  0.43857755  0.16070044  1  1.592728  0.00112  0.233311  0.661801  0.00093  4.094987  0.001
C  C116  1  0.56559925  0.12702218  0.16069896  1  1.598919  0.001116  0.23327  0.661741  0.00093  4.094947  0.001
C  C117  1  0.56142257  0.43440077  0.16069796  1  1.584536  0.001111  0.233314  0.661824  0.000929  4.094988  0.001
N  N118  1  0.38961379  0.34790769  0.56126415  1  -1.093534  0.096004  -0.497918  -0.279249  0.061429  3.558219  0.079
N  N119  1  0.65209186  0.04170651  0.56126145  1  -1.089177  0.096049  -0.497859  -0.279143  0.06143  3.558121  0.079
N  N120  1  0.95829317  0.61038610  0.56126116  1  -1.088898  0.095966  -0.497783  -0.279056  0.061432  3.55807  0.079
N  N121  1  0.04170967  0.65209034  0.93873818  1  -1.089168  0.096044  -0.497901  -0.279197  0.061428  3.558264  0.079
N  N122  1  0.61038231  0.95829053  0.93873802  1  -1.088927  0.095958  -0.497885  -0.279204  0.061426  3.558066  0.079
N  N123  1  0.34790834  0.38961496  0.93873618  1  -1.093527  0.096  -0.497924  -0.2792  0.061427  3.558064  0.079
N  N124  1  0.61038689  0.65209372  0.43873667  1  -1.09352  0.096006  -0.497818  -0.279135  0.06143  3.558074  0.079
N  N125  1  0.34790818  0.95829255  0.43873730  1  -1.089169  0.096045  -0.497886  -0.279189  0.061428  3.558125  0.079
N  N126  1  0.04170645  0.38961339  0.43873897  1  -1.088775  0.095959  -0.497799  -0.279119  0.061427  3.55808  0.079
N  N127  1  0.95829092  0.34790668  0.06126333  1  -1.089013  0.096038  -0.497905  -0.279191  0.061423  3.558133  0.079
N  N128  1  0.38961656  0.04170821  0.06126350  1  -1.089142  0.09596  -0.497938  -0.279227  0.061427  3.558193  0.079
N  N129  1  0.65209214  0.61038366  0.06126187  1  -1.093335  0.095995  -0.497889  -0.279191  0.061425  3.557955  0.079
O  O130  1  0.54493590  0.35452790  0.43938866  1  -1.191349  -0.001006  -0.395023  -0.665634  -0.001493  2.332864  0.0
O  O131  1  0.64547019  0.19040870  0.43938836  1  -1.180308  -0.001  -0.395011  -0.665628  -0.001493  2.332929  0.0
O  O132  1  0.80959187  0.45506135  0.43938853  1  -1.181268  -0.000997  -0.394993  -0.665628  -0.001493  2.332863  0.0
O  O133  1  0.19040838  0.64546533  0.06061423  1  -1.180362  -0.001  -0.394969  -0.66566  -0.001493  2.332737  0.0
O  O134  1  0.45505806  0.80959125  0.06061348  1  -1.18078  -0.000997  -0.39494  -0.665605  -0.001493  2.33278  0.0
O  O135  1  0.35453418  0.54494027  0.06061187  1  -1.190953  -0.001006  -0.394995  -0.665671  -0.001493  2.332862  0.0
O  O136  1  0.45506372  0.64547159  0.56061148  1  -1.191414  -0.001006  -0.395019  -0.665645  -0.001493  2.332959  0.0
O  O137  1  0.35452739  0.80959134  0.56061316  1  -1.180327  -0.001  -0.395087  -0.665815  -0.001493  2.332928  0.0
O  O138  1  0.19040924  0.54493963  0.56061230  1  -1.181051  -0.000997  -0.394985  -0.665627  -0.001493  2.332921  0.0
O  O139  1  0.80959209  0.35453330  0.93938729  1  -1.180316  -0.001  -0.39499  -0.665635  -0.001493  2.3328  0.0
O  O140  1  0.54494050  0.19040631  0.93938596  1  -1.180777  -0.000996  -0.395006  -0.66571  -0.001493  2.332854  0.0
O  O141  1  0.64546951  0.45505813  0.93938757  1  -1.190892  -0.001006  -0.395059  -0.66569  -0.001493  2.332831  0.0
O  O142  1  0.42617243  0.18246791  0.37609023  1  -1.199479  0.001316  -0.320732  -0.589284  0.00057  2.169156  0.001
O  O143  1  0.81753068  0.24370644  0.37608855  1  -1.20163  0.00132  -0.320675  -0.589163  0.00057  2.169165  0.001
O  O144  1  0.75629184  0.57382199  0.37608970  1  -1.198254  0.001316  -0.320732  -0.589254  0.00057  2.169079  0.001
O  O145  1  0.24370461  0.81752620  0.12391202  1  -1.201617  0.001319  -0.320751  -0.589243  0.00057  2.169353  0.001
O  O146  1  0.57382033  0.75629376  0.12391093  1  -1.198296  0.001316  -0.32076  -0.589272  0.00057  2.169351  0.001
O  O147  1  0.18247398  0.42617722  0.12391090  1  -1.199435  0.001315  -0.320729  -0.589271  0.00057  2.169354  0.001
O  O148  1  0.57382676  0.81753200  0.62391059  1  -1.199471  0.001315  -0.320692  -0.589225  0.00057  2.168985  0.001
O  O149  1  0.18246752  0.75629595  0.62391089  1  -1.20165  0.001319  -0.320707  -0.589304  0.00057  2.16898  0.001
O  O150  1  0.24370617  0.42617761  0.62391181  1  -1.198241  0.001316  -0.320758  -0.589285  0.00057  2.16913  0.001
O  O151  1  0.75629426  0.18247254  0.87608950  1  -1.20161  0.001319  -0.320749  -0.589248  0.000569  2.169341  0.001
O  O152  1  0.42617630  0.24370274  0.87608920  1  -1.198232  0.001316  -0.320717  -0.589248  0.00057  2.169307  0.001
O  O153  1  0.81753067  0.57382471  0.87608923  1  -1.19953  0.001314  -0.320687  -0.589146  0.000569  2.169172  0.001
O  O154  1  0.60308283  0.52449663  0.60554284  1  -1.127118  0.086219  -0.316269  -0.514488  0.054558  2.284523  0.078
O  O155  1  0.47550575  0.07859016  0.60554103  1  -1.131209  0.086223  -0.316235  -0.514473  0.05456  2.284581  0.078
O  O156  1  0.92141433  0.39691696  0.60553961  1  -1.128967  0.086232  -0.316292  -0.514537  0.054562  2.284446  0.078
O  O157  1  0.07858764  0.47550189  0.89445995  1  -1.131092  0.086241  -0.316368  -0.514677  0.054571  2.284123  0.078
O  O158  1  0.39691049  0.92140278  0.89446435  1  -1.128697  0.086245  -0.316424  -0.514738  0.05457  2.284139  0.078
O  O159  1  0.52449566  0.60308268  0.89445899  1  -1.126925  0.086235  -0.316357  -0.514674  0.054568  2.284091  0.078
O  O160  1  0.39691753  0.47550360  0.39445729  1  -1.127075  0.086224  -0.316292  -0.514521  0.054561  2.28445  0.078
O  O161  1  0.52449686  0.92141232  0.39445702  1  -1.131255  0.086223  -0.316278  -0.514529  0.05456  2.284406  0.078
O  O162  1  0.07858634  0.60308445  0.39445983  1  -1.128983  0.08623  -0.316261  -0.514487  0.054561  2.284514  0.078
O  O163  1  0.92141240  0.52449717  0.10554157  1  -1.131029  0.086236  -0.316396  -0.514683  0.054569  2.284072  0.078
O  O164  1  0.60308445  0.07858944  0.10553994  1  -1.128674  0.086243  -0.316386  -0.514698  0.054569  2.284099  0.078
O  O165  1  0.47550376  0.39691402  0.10553906  1  -1.126943  0.086242  -0.316402  -0.514738  0.054572  2.284159  0.078
O  O166  1  0.62284269  0.43737952  0.72979847  1  -1.205969  0.013095  -0.40609  -0.66078  0.00809  2.325725  0.011
O  O167  1  0.56262301  0.18546326  0.72979891  1  -1.205513  0.013092  -0.4061  -0.660734  0.00809  2.325872  0.011
O  O168  1  0.81453855  0.37715689  0.72979822  1  -1.212451  0.01309  -0.40607  -0.660736  0.008089  2.325633  0.011
O  O169  1  0.18545641  0.56261582  0.77020212  1  -1.205687  0.013082  -0.406082  -0.660805  0.008084  2.326042  0.011
O  O170  1  0.37716007  0.81454087  0.77020294  1  -1.212719  0.013081  -0.40609  -0.660757  0.008084  2.326027  0.011
O  O171  1  0.43738089  0.62283878  0.77020264  1  -1.205531  0.013085  -0.406081  -0.66077  0.008084  2.326071  0.011
O  O172  1  0.37716305  0.56261832  0.27019819  1  -1.205953  0.013095  -0.406065  -0.660735  0.00809  2.325699  0.011
O  O173  1  0.43738321  0.81454455  0.27019706  1  -1.205532  0.013092  -0.40608  -0.660764  0.00809  2.325625  0.011
O  O174  1  0.18546460  0.62284354  0.27020330  1  -1.212472  0.013089  -0.406124  -0.660732  0.008089  2.325683  0.011
O  O175  1  0.81454096  0.43738143  0.22979802  1  -1.205698  0.013081  -0.406071  -0.660759  0.008084  2.326137  0.011
O  O176  1  0.62283805  0.18545712  0.22979858  1  -1.212713  0.013081  -0.406043  -0.660718  0.008084  2.326084  0.011
O  O177  1  0.56261798  0.37715996  0.22979541  1  -1.205533  0.013086  -0.406096  -0.660726  0.008085  2.326038  0.011
