# generated using pymatgen
data_ZnH16C24S2(NO)4
_symmetry_space_group_name_H-M   'P 1'
_cell_length_a   7.51002478
_cell_length_b   15.19388825
_cell_length_c   15.78311838
_cell_angle_alpha   64.23955958
_cell_angle_beta   76.29129390
_cell_angle_gamma   75.74285180
_symmetry_Int_Tables_number   1
_chemical_formula_structural   ZnH16C24S2(NO)4
_chemical_formula_sum   'Zn2 H32 C48 S4 N8 O8'
_cell_volume   1554.49954479
_cell_formula_units_Z   2
loop_
 _symmetry_equiv_pos_site_id
 _symmetry_equiv_pos_as_xyz
  1  'x, y, z'
loop_
 _atom_site_type_symbol
 _atom_site_label
 _atom_site_symmetry_multiplicity
 _atom_site_fract_x
 _atom_site_fract_y
 _atom_site_fract_z
 _atom_site_occupancy
 _atom_site_pbe_bader_charge
 _atom_site_pbe_bader_spin_density
 _atom_site_pbe_cm5_charge
 _atom_site_pbe_ddec_charge
 _atom_site_pbe_ddec_spin_density
 _atom_site_pbe_ddec_sum_bond_order
 _atom_site_pbe_magmom
Zn  Zn0  1  0.00885995  0.75026257  0.25032283  1  1.247424  0  0.691387  0.751212  0  2.410764  0
Zn  Zn1  1  0.99110705  0.24975376  0.74966708  1  1.247499  0  0.691459  0.751241  0  2.410696  0
H  H2  1  0.61353415  0.82566589  0.02333535  1  0.087912  0  0.095329  0.103091  0  1.034549  0
H  H3  1  0.46261469  0.67416135  0.47720774  1  0.089073  0  0.094924  0.102462  0  1.03477  0
H  H4  1  0.38658540  0.17428107  0.97669092  1  0.087327  0  0.095258  0.103058  0  1.034748  0
H  H5  1  0.53738726  0.32586167  0.52276304  1  0.08933  0  0.094903  0.102395  0  1.034837  0
H  H6  1  0.08304911  0.03788430  0.14753398  1  0.03007  0  0.083489  0.120892  0  1.031754  0
H  H7  1  0.26760419  0.46219672  0.35244607  1  0.02905  0  0.083624  0.120395  0  1.032233  0
H  H8  1  0.91700710  0.96209354  0.85246970  1  0.030095  0  0.083562  0.120963  0  1.031809  0
H  H9  1  0.73239180  0.53784045  0.64751803  1  0.02937  0  0.083597  0.120365  0  1.032323  0
H  H10  1  0.01257674  0.04103545  0.04802688  1  0.055719  0  0.091906  0.136776  0  1.003818  0
H  H11  1  0.10108713  0.45897119  0.45196969  1  0.052241  0  0.091622  0.136536  0  1.003291  0
H  H12  1  0.98755128  0.95892828  0.95196664  1  0.055159  0  0.091893  0.136755  0  1.003725  0
H  H13  1  0.89891385  0.54105485  0.54799877  1  0.051777  0  0.091584  0.136551  0  1.003242  0
H  H14  1  0.08839952  0.14706228  0.04015112  1  -0.012988  0  0.081642  0.114831  0  1.031328  0
H  H15  1  0.27482800  0.35301719  0.45979558  1  -0.009639  0  0.081803  0.114872  0  1.031304  0
H  H16  1  0.91172501  0.85290386  0.95983742  1  -0.013418  0  0.0817  0.114855  0  1.031191  0
H  H17  1  0.72518250  0.64700928  0.54016341  1  -0.009965  0  0.081767  0.114777  0  1.031213  0
H  H18  1  0.10121192  0.70143399  0.07911983  1  0.163919  0  0.116023  0.097064  0  1.044222  0
H  H19  1  0.88132222  0.79941049  0.42129414  1  0.153052  0  0.115876  0.097159  0  1.043143  0
H  H20  1  0.89875194  0.29856664  0.92087900  1  0.164026  0  0.11602  0.097102  0  1.044292  0
H  H21  1  0.11866865  0.20058700  0.57870988  1  0.152903  0  0.11591  0.097216  0  1.043251  0
H  H22  1  0.95584006  0.62313982  0.00522176  1  0.12176  0  0.114438  0.128535  0  0.992654  0
H  H23  1  0.58386134  0.87765395  0.49496944  1  0.126498  0  0.1142  0.127024  0  0.992932  0
H  H24  1  0.04412979  0.37685921  0.99478019  1  0.121916  0  0.114388  0.128422  0  0.992696  0
H  H25  1  0.41612295  0.12231721  0.50505305  1  0.125643  0  0.114201  0.126999  0  0.992726  0
H  H26  1  0.50886415  0.58086462  0.24342992  1  0.146131  0  0.111976  0.126939  0  1.011494  0
H  H27  1  0.33322584  0.91975678  0.25644084  1  0.125517  0  0.112121  0.127358  0  1.011608  0
H  H28  1  0.49107293  0.41915521  0.75656325  1  0.146173  0  0.111925  0.126745  0  1.011794  0
H  H29  1  0.66672408  0.08022714  0.74358943  1  0.124939  0  0.112067  0.127285  0  1.011667  0
H  H30  1  0.67806944  0.65060681  0.30941720  1  0.104198  0  0.116701  0.082458  0  1.02736  0
H  H31  1  0.63809292  0.85021109  0.19062448  1  0.10611  0  0.116647  0.083302  0  1.026382  0
H  H32  1  0.32186390  0.34942891  0.69056266  1  0.10435  0  0.116709  0.082447  0  1.027265  0
H  H33  1  0.36187095  0.14980607  0.80937941  1  0.106001  0  0.116615  0.083167  0  1.026355  0
C  C34  1  0.27034945  0.84624020  0.10353051  1  1.553506  0  0.197591  0.571947  0  4.220033  0
C  C35  1  0.21936705  0.65384442  0.39721644  1  1.55434  0  0.196277  0.568722  0  4.220047  0
C  C36  1  0.72973987  0.15372415  0.89648166  1  1.553136  0  0.197352  0.571325  0  4.219719  0
C  C37  1  0.78060022  0.34617100  0.60277760  1  1.553274  0  0.196169  0.568785  0  4.220438  0
C  C38  1  0.38135487  0.92922160  0.04891849  1  -0.032476  0  -0.021206  -0.088384  0  3.947282  0
C  C39  1  0.35909545  0.57079300  0.45140802  1  -0.051938  0  -0.020784  -0.087401  0  3.946294  0
C  C40  1  0.61876051  0.07072976  0.95110718  1  -0.026689  0  -0.021196  -0.088384  0  3.947215  0
C  C41  1  0.64090495  0.42922636  0.54856307  1  -0.05133  0  -0.020786  -0.087755  0  3.946741  0
C  C42  1  0.31070312  0.02880120  0.03619573  1  0.029297  0  -0.008638  0.14589  0  3.953729  0
C  C43  1  0.37520981  0.47128704  0.46381949  1  -0.055942  0  -0.008821  0.146231  0  3.951791  0
C  C44  1  0.68940267  0.97115019  0.96382910  1  0.021956  0  -0.008503  0.146131  0  3.953396  0
C  C45  1  0.62479801  0.52873901  0.53614884  1  -0.055236  0  -0.008746  0.146396  0  3.951474  0
C  C46  1  0.56626857  0.90324265  0.01247825  1  -0.11433  0  -0.096621  -0.172925  0  3.977785  0
C  C47  1  0.48207835  0.59664955  0.48779771  1  -0.017228  0  -0.096595  -0.173167  0  3.978918  0
C  C48  1  0.43384775  0.09670589  0.98754524  1  -0.113429  0  -0.096549  -0.172734  0  3.978112  0
C  C49  1  0.51792518  0.40337294  0.51216865  1  -0.017253  0  -0.096441  -0.172767  0  3.978873  0
C  C50  1  0.11331919  0.06585511  0.06962016  1  -0.001325  0  -0.245087  -0.401835  0  3.969052  0
C  C51  1  0.24808788  0.43422107  0.43036079  1  0.005801  0  -0.245147  -0.401419  0  3.968995  0
C  C52  1  0.88678105  0.93410947  0.93038690  1  0.000529  0  -0.245217  -0.401947  0  3.969184  0
C  C53  1  0.75191630  0.56580357  0.56960658  1  0.006064  0  -0.244964  -0.401147  0  3.968781  0
C  C54  1  0.97101114  0.67233886  0.11211629  1  0.470411  0  0.045005  0.077385  0  3.955453  0
C  C55  1  0.75518142  0.82854489  0.38816115  1  0.481833  0  0.045231  0.07632  0  3.954943  0
C  C56  1  0.02894759  0.32766916  0.88788028  1  0.471041  0  0.044963  0.077234  0  3.955414  0
C  C57  1  0.24480110  0.17146137  0.61184232  1  0.482116  0  0.045249  0.076314  0  3.955037  0
C  C58  1  0.89001200  0.62986946  0.07189443  1  -0.044311  0  -0.074179  -0.150185  0  3.909252  0
C  C59  1  0.59151161  0.87091457  0.42826963  1  -0.0368  0  -0.073087  -0.145774  0  3.906196  0
C  C60  1  0.10995317  0.37013557  0.92810384  1  -0.045157  0  -0.074159  -0.149916  0  3.908883  0
C  C61  1  0.40846935  0.12907941  0.57174761  1  -0.035723  0  -0.073095  -0.145603  0  3.905936  0
C  C62  1  0.71951076  0.59659998  0.11739426  1  -0.012738  0  0.017444  0.09953  0  4.009153  0
C  C63  1  0.43341103  0.90407202  0.38259315  1  0.027023  0  0.016473  0.097733  0  4.01221  0
C  C64  1  0.28044983  0.40340645  0.88260525  1  0.053217  0  0.017457  0.099335  0  4.009239  0
C  C65  1  0.56656352  0.09592461  0.61743014  1  0.027302  0  0.016593  0.097647  0  4.012211  0
C  C66  1  0.64159823  0.60417755  0.20461555  1  -0.024214  0  -0.072589  -0.146678  0  3.90309  0
C  C67  1  0.45037092  0.89654090  0.29533279  1  0.003824  0  -0.072996  -0.147142  0  3.906044  0
C  C68  1  0.35835490  0.39583914  0.79538275  1  -0.090264  0  -0.072412  -0.146161  0  3.903227  0
C  C69  1  0.54958738  0.10345937  0.70469026  1  0.004702  0  -0.072995  -0.147209  0  3.906396  0
C  C70  1  0.73400593  0.64506579  0.24123828  1  0.505356  0  0.050184  0.096615  0  3.934494  0
C  C71  1  0.62026849  0.85577220  0.25881921  1  0.431993  0  0.050664  0.095977  0  3.933946  0
C  C72  1  0.26594490  0.35496238  0.75874761  1  0.50464  0  0.050004  0.096354  0  3.934558  0
C  C73  1  0.37969160  0.14423972  0.74118775  1  0.431969  0  0.050699  0.096244  0  3.934064  0
C  C74  1  0.62850424  0.55696671  0.07320467  1  0.465557  0  0.131132  0.129258  0  3.972995  0
C  C75  1  0.25861993  0.94346017  0.42674790  1  0.465483  0  0.13178  0.128979  0  3.974942  0
C  C76  1  0.37145214  0.44304432  0.92678973  1  0.465772  0  0.131163  0.129355  0  3.973129  0
C  C77  1  0.74136303  0.05652735  0.57328366  1  0.465491  0  0.131565  0.128867  0  3.975116  0
C  C78  1  0.58122739  0.51267239  0.96740628  1  0.364246  0  0.096794  0.073578  0  4.136218  0
C  C79  1  0.06124467  0.98726463  0.53270181  1  0.409385  0  0.097314  0.07391  0  4.135884  0
C  C80  1  0.41872668  0.48734145  0.03259047  1  0.406747  0  0.096872  0.073543  0  4.136364  0
C  C81  1  0.93874707  0.01272957  0.46732684  1  0.349943  0  0.09729  0.074008  0  4.135781  0
S  S82  1  0.41444191  0.51493697  0.12787027  1  0.263491  0  0.134739  0.119049  0  2.691147  0
S  S83  1  0.05739741  0.98554535  0.37188540  1  0.26818  0  0.134812  0.119041  0  2.691084  0
S  S84  1  0.58552355  0.48507574  0.87211931  1  0.263748  0  0.134782  0.118982  0  2.690721  0
S  S85  1  0.94258136  0.01444658  0.62814493  1  0.267445  0  0.134862  0.11912  0  2.691317  0
N  N86  1  0.89359350  0.68073473  0.19522938  1  -1.257469  0  -0.329664  -0.228626  0  3.560454  0
N  N87  1  0.76933340  0.82012493  0.30501352  1  -1.252166  0  -0.330386  -0.22945  0  3.560045  0
N  N88  1  0.10636046  0.31928384  0.80475922  1  -1.257121  0  -0.329556  -0.228529  0  3.560564  0
N  N89  1  0.23064526  0.17989325  0.69498390  1  -1.25274  0  -0.330421  -0.229551  0  3.560151  0
N  N90  1  0.69795278  0.55089140  0.99007215  1  -1.159203  0  -0.311495  -0.288892  0  3.291543  0
N  N91  1  0.23877490  0.94924142  0.51003896  1  -1.152782  0  -0.311856  -0.288499  0  3.292674  0
N  N92  1  0.30200625  0.44912424  0.00991702  1  -1.159398  0  -0.311537  -0.288906  0  3.291804  0
N  N93  1  0.76120506  0.05074702  0.48998814  1  -1.152208  0  -0.311877  -0.28857  0  3.292837  0
O  O94  1  0.13068367  0.86304847  0.16455317  1  -1.164559  0  -0.336246  -0.551084  0  2.358296  0
O  O95  1  0.15697462  0.63721258  0.33615538  1  -1.16436  0  -0.335702  -0.549026  0  2.356536  0
O  O96  1  0.86942102  0.13692733  0.83546367  1  -1.164061  0  -0.336096  -0.550744  0  2.358094  0
O  O97  1  0.84296666  0.36280262  0.66384354  1  -1.164052  0  -0.335659  -0.548994  0  2.356484  0
O  O98  1  0.31659237  0.76721373  0.09125956  1  -1.182447  0  -0.334411  -0.571123  0  2.149222  0
O  O99  1  0.17466791  0.73274657  0.40971494  1  -1.183595  0  -0.333839  -0.569781  0  2.14921  0
O  O100  1  0.68344582  0.23276071  0.90873856  1  -1.182369  0  -0.334405  -0.570987  0  2.149055  0
O  O101  1  0.82531096  0.26727108  0.59027822  1  -1.183072  0  -0.33376  -0.569759  0  2.149268  0
