# generated using pymatgen
data_AlH7(C2O)6
_symmetry_space_group_name_H-M   'P 1'
_cell_length_a   6.59975707
_cell_length_b   11.04287166
_cell_length_c   13.42465804
_cell_angle_alpha   72.08975181
_cell_angle_beta   71.54988733
_cell_angle_gamma   74.09512790
_symmetry_Int_Tables_number   1
_chemical_formula_structural   AlH7(C2O)6
_chemical_formula_sum   'Al2 H14 C24 O12'
_cell_volume   866.03640328
_cell_formula_units_Z   2
loop_
 _symmetry_equiv_pos_site_id
 _symmetry_equiv_pos_as_xyz
  1  'x, y, z'
loop_
 _atom_site_type_symbol
 _atom_site_label
 _atom_site_symmetry_multiplicity
 _atom_site_fract_x
 _atom_site_fract_y
 _atom_site_fract_z
 _atom_site_occupancy
 _atom_site_pbe_bader_charge
 _atom_site_pbe_bader_spin_density
 _atom_site_pbe_cm5_charge
 _atom_site_pbe_ddec_charge
 _atom_site_pbe_ddec_spin_density
 _atom_site_pbe_ddec_sum_bond_order
 _atom_site_pbe_magmom
Al  Al0  1  0.49457718  0.48998352  0.51384013  1  2.50272  0  0.394953  1.638561  0  2.595184  0
Al  Al1  1  0.99611065  0.49043298  0.51147390  1  2.501869  0  0.400394  1.637373  0  2.579317  0
H  H2  1  0.22458470  0.65262435  0.43424426  1  0.614265  0  0.349038  0.425589  0  0.868056  0
H  H3  1  0.70775674  0.39897451  0.64557919  1  0.606194  0  0.353869  0.429002  0  0.857045  0
H  H4  1  0.15228667  0.25784669  0.35818863  1  0.07889  0  0.101367  0.105899  0  1.053139  0
H  H5  1  0.03351965  0.16696199  0.24547715  1  0.063363  0  0.095591  0.091417  0  1.012882  0
H  H6  1  0.44032808  0.79860415  0.34274531  1  0.05532  0  0.09963  0.101708  0  1.041478  0
H  H7  1  0.18050563  0.93413155  0.23723065  1  0.040296  0  0.097427  0.09416  0  0.998129  0
H  H8  1  0.66459430  0.43521792  0.20390434  1  0.115018  0  0.113593  0.121079  0  0.99438  0
H  H9  1  0.21260139  0.58811254  0.18446202  1  0.108215  0  0.110325  0.118086  0  0.994705  0
H  H10  1  0.34894316  0.59631568  0.98694363  1  0.100236  0  0.104774  0.10657  0  1.00231  0
H  H11  1  0.31504829  0.54844766  0.82414153  1  0.068643  0  0.111791  0.118126  0  0.995757  0
H  H12  1  0.76918989  0.39297596  0.84397615  1  0.083999  0  0.107779  0.110873  0  1.000922  0
H  H13  1  0.63029617  0.38774039  0.04032524  1  0.072256  0  0.106405  0.107599  0  1.003721  0
H  H14  1  0.88464545  0.77280607  0.56903221  1  0.658233  0  0.313972  0.353147  0  0.963762  0
H  H15  1  0.65527160  0.19957034  0.56743351  1  0.653489  0  0.318873  0.36086  0  0.95988  0
C  C16  1  0.84976362  0.50801194  0.32178215  1  1.537113  0  0.269578  0.63989  0  4.10025  0
C  C17  1  0.65265781  0.72535838  0.49671994  1  1.501807  0  0.263403  0.658627  0  4.062588  0
C  C18  1  0.13549974  0.47141415  0.70636123  1  1.557591  0  0.267569  0.646682  0  4.087625  0
C  C19  1  0.34815621  0.26561592  0.50161581  1  1.519534  0  0.268488  0.658827  0  4.049372  0
C  C20  1  0.44166622  0.13501693  0.48206723  1  -0.009848  0  -0.032623  -0.244355  0  3.944288  0
C  C21  1  0.35940408  0.08028441  0.42072649  1  0.022653  0  -0.003343  0.076314  0  3.960843  0
C  C22  1  0.61662574  0.06137405  0.52657564  1  0.598117  0  0.102116  0.231861  0  4.026586  0
C  C23  1  0.21230360  0.15635557  0.35726982  1  -0.035123  0  -0.099438  -0.134352  0  3.980037  0
C  C24  1  0.14581584  0.10499972  0.29370307  1  -0.003385  0  -0.10344  -0.090207  0  4.068015  0
C  C25  1  0.59527053  0.86753161  0.47909246  1  0.031651  0  -0.036527  -0.245344  0  3.970425  0
C  C26  1  0.69132924  0.92606789  0.52644491  1  0.550936  0  0.099083  0.226618  0  4.037499  0
C  C27  1  0.43901414  0.94643141  0.41802580  1  -0.006198  0  -0.007318  0.073728  0  3.970589  0
C  C28  1  0.37175433  0.89784941  0.34985432  1  -0.049526  0  -0.103515  -0.148469  0  4.011194  0
C  C29  1  0.22726488  0.97473759  0.28933367  1  -0.036008  0  -0.103996  -0.094746  0  4.084419  0
C  C30  1  0.81504466  0.46886294  0.15574392  1  -0.083834  0  -0.068971  -0.127537  0  3.912756  0
C  C31  1  0.12581793  0.55618927  0.14336312  1  -0.041587  0  -0.083188  -0.097713  0  3.991023  0
C  C32  1  0.20075651  0.55983167  0.03472986  1  -0.031092  0  -0.082324  -0.128146  0  3.990813  0
C  C33  1  0.08807588  0.51522629  0.98280384  1  0.030563  0  -0.001544  0.080032  0  3.996278  0
C  C34  1  0.16516521  0.51404093  0.87208471  1  -0.020234  0  -0.070452  -0.125307  0  3.914231  0
C  C35  1  0.85548743  0.42625323  0.88436565  1  -0.10015  0  -0.085958  -0.098002  0  3.998191  0
C  C36  1  0.77877970  0.42397573  0.99272771  1  -0.030072  0  -0.084869  -0.128216  0  3.989894  0
C  C37  1  0.89115619  0.46857869  0.04481160  1  0.009392  0  -0.002049  0.075139  0  3.999368  0
C  C38  1  0.93046532  0.51091278  0.20449517  1  -0.024072  0  -0.012862  -0.042872  0  3.992264  0
C  C39  1  0.05163600  0.47067413  0.82328017  1  0.013893  0  -0.015808  -0.044487  0  3.993745  0
O  O40  1  0.66209979  0.48115724  0.37065780  1  -1.258727  0  -0.232388  -0.582029  0  2.347716  0
O  O41  1  0.83341784  0.66567447  0.52415963  1  -1.259326  0  -0.245293  -0.618378  0  2.367371  0
O  O42  1  0.00862999  0.45205166  0.66039738  1  -1.268309  0  -0.239024  -0.608843  0  2.343846  0
O  O43  1  0.46381186  0.31590714  0.53490928  1  -1.269815  0  -0.241555  -0.617253  0  2.404845  0
O  O44  1  0.32883730  0.49126185  0.66000901  1  -1.268424  0  -0.239194  -0.601809  0  2.344595  0
O  O45  1  0.15963758  0.32459473  0.49021078  1  -1.257442  0  -0.221262  -0.556567  0  2.358029  0
O  O46  1  0.97349097  0.53318849  0.36598631  1  -1.260638  0  -0.237301  -0.59661  0  2.35386  0
O  O47  1  0.52348001  0.66529635  0.48722544  1  -1.271824  0  -0.230588  -0.594216  0  2.414663  0
O  O48  1  0.24573674  0.55927099  0.46281377  1  -1.419736  0  -0.449294  -0.989118  0  2.20763  0
O  O49  1  0.74199402  0.42356180  0.56708062  1  -1.410954  0  -0.448103  -0.981832  0  2.17611  0
O  O50  1  0.84708809  0.86335578  0.57875621  1  -1.143259  0  -0.335623  -0.397473  0  2.29457  0
O  O51  1  0.71938004  0.10437382  0.57616688  1  -1.13667  0  -0.332165  -0.393885  0  2.294551  0
