# generated using pymatgen
data_Zr6H23C56S10O32F5
_symmetry_space_group_name_H-M   'P 1'
_cell_length_a   16.45683095
_cell_length_b   16.45085814
_cell_length_c   16.51892521
_cell_angle_alpha   61.95492491
_cell_angle_beta   59.85165472
_cell_angle_gamma   60.26332358
_symmetry_Int_Tables_number   1
_chemical_formula_structural   Zr6H23C56S10O32F5
_chemical_formula_sum   'Zr6 H23 C56 S10 O32 F5'
_cell_volume   3209.13002693
_cell_formula_units_Z   1
loop_
 _symmetry_equiv_pos_site_id
 _symmetry_equiv_pos_as_xyz
  1  'x, y, z'
loop_
 _atom_site_type_symbol
 _atom_site_label
 _atom_site_symmetry_multiplicity
 _atom_site_fract_x
 _atom_site_fract_y
 _atom_site_fract_z
 _atom_site_occupancy
 _atom_site_pbe_bader_charge
 _atom_site_pbe_bader_spin_density
 _atom_site_pbe_cm5_charge
 _atom_site_pbe_ddec_charge
 _atom_site_pbe_ddec_spin_density
 _atom_site_pbe_ddec_sum_bond_order
 _atom_site_pbe_magmom
Zr  Zr0  1  0.88691678  0.90431329  0.59982166  1  2.634409  0  1.628478  2.373319  0  2.777749  0
Zr  Zr1  1  0.10830762  0.10667663  0.39804280  1  2.640974  0  1.629812  2.374458  0  2.770508  0
Zr  Zr2  1  0.10094305  0.89811502  0.60679183  1  2.639247  0  1.628332  2.3752  0  2.746496  0
Zr  Zr3  1  0.89395277  0.11331235  0.39211488  1  2.632088  0  1.6217  2.369536  0  2.753618  0
Zr  Zr4  1  0.10683855  0.89620899  0.38995795  1  2.634516  0  1.620201  2.379367  0  2.725454  0
Zr  Zr5  1  0.88810983  0.11426400  0.60905421  1  2.639243  0  1.620158  2.378722  0  2.727692  0
H  H6  1  0.07724870  0.75605397  0.57611077  1  0.627465  0  0.331831  0.423466  0  0.856885  0
H  H7  1  0.08995969  0.08316134  0.24980876  1  0.599903  0  0.330689  0.421895  0  0.858708  0
H  H8  1  0.08006461  0.08693031  0.59013427  1  0.618363  0  0.33136  0.425195  0  0.855452  0
H  H9  1  0.74222177  0.09602224  0.58102752  1  0.611909  0  0.330656  0.424326  0  0.856181  0
H  H10  1  0.12256186  0.61525251  0.36117877  1  0.117213  0  0.12314  0.149233  0  0.967545  0
H  H11  1  0.61083577  0.12639644  0.90381467  1  0.118025  0  0.123098  0.149421  0  0.967928  0
H  H12  1  0.86716767  0.12927344  0.11803486  1  0.131539  0  0.121421  0.148429  0  0.970628  0
H  H13  1  0.62158061  0.39781014  0.36593098  1  0.132869  0  0.120788  0.146581  0  0.972834  0
H  H14  1  0.83561853  0.67559244  0.86364032  1  0.067127  0  0.102196  0.111977  0  1.019457  0
H  H15  1  0.12041512  0.37344266  0.17187800  1  0.064266  0  0.1031  0.113591  0  1.017316  0
H  H16  1  0.61585802  0.87973099  0.61442291  1  0.144661  0  0.122476  0.148778  0  0.970809  0
H  H17  1  0.24826484  0.49348318  0.96789447  1  0.033946  0  0.093104  0.126952  0  1.0022  0
H  H18  1  0.14554122  0.59873871  0.99490392  1  0.014842  0  0.094435  0.133032  0  0.999169  0
H  H19  1  0.18186476  0.49604127  0.09076299  1  0.031064  0  0.090909  0.124191  0  1.001613  0
H  H20  1  0.22211805  0.53088163  0.84312009  1  0.033979  0  0.089243  0.12365  0  1.015916  0
H  H21  1  0.17950727  0.62169768  0.74617439  1  0.040874  0  0.091085  0.133629  0  1.015964  0
H  H22  1  0.17366699  0.65755745  0.83364979  1  0.057923  0  0.100106  0.144016  0  0.988781  0
H  H23  1  0.79405651  0.46990799  0.98350819  1  0.0236  0  0.09152  0.123199  0  1.006463  0
H  H24  1  0.76138325  0.49943676  0.08843481  1  0.053353  0  0.092327  0.12814  0  1.001145  0
H  H25  1  0.73328984  0.59336318  0.98438707  1  0.053758  0  0.092009  0.125928  0  0.999848  0
H  H26  1  0.90861534  0.34651214  0.02156675  1  0.002008  0  0.089631  0.123164  0  1.014862  0
H  H27  1  0.95531195  0.25093082  0.11446321  1  0.058662  0  0.091909  0.133173  0  1.017256  0
H  H28  1  0.83672260  0.33843408  0.14767039  1  0.051265  0  0.095648  0.133274  0  0.995955  0
C  C29  1  0.99221310  0.74271147  0.48410711  1  1.580161  0  0.225494  0.64213  0  4.160121  0
C  C30  1  0.28004200  0.99013313  0.23673321  1  1.57536  0  0.224134  0.664133  0  4.153523  0
C  C31  1  0.99245832  0.27786022  0.50403670  1  1.595621  0  0.224442  0.665285  0  4.153214  0
C  C32  1  0.72505520  0.00818734  0.77219260  1  1.578993  0  0.227522  0.645315  0  4.154734  0
C  C33  1  0.98595420  0.74020440  0.76230757  1  1.526275  0  0.234158  0.645375  0  4.07793  0
C  C34  1  0.72879855  0.00767392  0.48960965  1  1.586681  0  0.226236  0.644797  0  4.157732  0
C  C35  1  0.00988913  0.26959013  0.23426865  1  1.533832  0  0.234017  0.644744  0  4.078875  0
C  C36  1  0.27334683  0.99680306  0.50019848  1  1.600869  0  0.224037  0.662915  0  4.159271  0
C  C37  1  0.27241256  0.73533142  0.49515828  1  1.579017  0  0.223107  0.660159  0  4.156382  0
C  C38  1  0.98825502  0.00071756  0.77851681  1  1.59749  0  0.225052  0.666931  0  4.149022  0
C  C39  1  0.73121653  0.28417773  0.49639528  1  1.588789  0  0.226172  0.644282  0  4.15247  0
C  C40  1  0.99687320  0.00129538  0.22903592  1  1.573  0  0.226701  0.64275  0  4.155615  0
C  C41  1  0.92011707  0.43081897  0.55899545  1  0.573344  0  0.101113  0.251794  0  4.082334  0
C  C42  1  0.05777297  0.59771620  0.42165376  1  0.015976  0  -0.086927  -0.133175  0  3.961112  0
C  C43  1  0.98879155  0.37082269  0.49886728  1  -0.118446  0  -0.035959  -0.248066  0  3.970944  0
C  C44  1  0.98944462  0.65482496  0.48415490  1  -0.165466  0  -0.020723  -0.116097  0  3.966111  0
C  C45  1  0.03156724  0.51629397  0.44894863  1  -0.128519  0  -0.020296  0.005986  0  4.087143  0
C  C46  1  0.94333490  0.51398419  0.53174927  1  -0.12238  0  -0.033228  -0.140284  0  4.111999  0
C  C47  1  0.42479257  0.92575633  0.09237294  1  0.568174  0  0.100495  0.251113  0  4.085851  0
C  C48  1  0.59075250  0.06408110  0.92332045  1  0.048677  0  -0.086469  -0.132988  0  3.959687  0
C  C49  1  0.37103914  0.98856884  0.14989080  1  -0.075058  0  -0.036469  -0.249667  0  3.973905  0
C  C50  1  0.64113628  0.00198622  0.86589038  1  -0.161059  0  -0.020205  -0.114635  0  3.961608  0
C  C51  1  0.51217448  0.03536644  0.00650920  1  -0.168507  0  -0.019996  0.005508  0  4.084806  0
C  C52  1  0.50531637  0.95142308  0.01022944  1  -0.155415  0  -0.03351  -0.139691  0  4.114831  0
C  C53  1  0.05069891  0.93017784  0.92123005  1  0.57663  0  0.101139  0.251812  0  4.075741  0
C  C54  1  0.92654777  0.06578797  0.09470119  1  0.000181  0  -0.088405  -0.13373  0  3.960833  0
C  C55  1  0.98659025  0.99791274  0.86946717  1  -0.101114  0  -0.036  -0.248515  0  3.961203  0
C  C56  1  0.99323439  0.99829773  0.14320024  1  -0.140635  0  -0.020866  -0.117934  0  3.961228  0
C  C57  1  0.94764459  0.04036226  0.01383569  1  -0.117693  0  -0.020433  0.005505  0  4.084918  0
C  C58  1  0.02992916  0.95331691  0.00328174  1  -0.18102  0  -0.033153  -0.139121  0  4.109786  0
C  C59  1  0.41559973  0.60164850  0.55803729  1  0.500754  0  0.101649  0.249063  0  4.081789  0
C  C60  1  0.59656307  0.42373145  0.42699070  1  -0.016891  0  -0.088346  -0.134136  0  3.962989  0
C  C61  1  0.36459309  0.65004282  0.49299295  1  -0.067386  0  -0.036182  -0.248223  0  3.967022  0
C  C62  1  0.64442890  0.37558118  0.49428009  1  -0.139602  0  -0.020426  -0.115075  0  3.952759  0
C  C63  1  0.51338157  0.50664079  0.45026778  1  -0.170329  0  -0.020227  0.006829  0  4.084337  0
C  C64  1  0.50028141  0.51972456  0.53506077  1  -0.088004  0  -0.033877  -0.141074  0  4.111861  0
C  C65  1  0.06221195  0.59169112  0.88327440  1  -0.022703  0  0.01129  0.138405  0  3.864629  0
C  C66  1  0.89659774  0.62522897  0.89155846  1  -0.014207  0  -0.097426  -0.170349  0  4.003384  0
C  C67  1  0.88736681  0.54044374  0.96630708  1  0.015331  0  -0.011231  0.121304  0  3.956885  0
C  C68  1  0.96519719  0.48023263  0.00777510  1  -0.035809  0  -0.002502  -0.032156  0  3.898061  0
C  C69  1  0.96297098  0.38931063  0.08446415  1  0.004788  0  0.009256  0.132675  0  3.867825  0
C  C70  1  0.08322062  0.40035718  0.12061979  1  0.013779  0  -0.096974  -0.171828  0  3.999623  0
C  C71  1  0.10251191  0.47524026  0.03591357  1  -0.006233  0  -0.009707  0.124501  0  3.955624  0
C  C72  1  0.04525387  0.51516663  0.97431458  1  -0.00365  0  -0.000197  -0.030352  0  3.891845  0
C  C73  1  0.98405281  0.64957338  0.84666730  1  -0.031728  0  -0.026449  -0.113767  0  3.980439  0
C  C74  1  0.01809339  0.35404015  0.14365537  1  -0.050064  0  -0.025946  -0.109712  0  3.978612  0
C  C75  1  0.41815529  0.05906583  0.42855278  1  0.553481  0  0.099743  0.250193  0  4.082611  0
C  C76  1  0.59283985  0.93777302  0.55383033  1  0.034479  0  -0.086209  -0.130557  0  3.960033  0
C  C77  1  0.36529325  0.99523971  0.49552249  1  -0.109533  0  -0.035977  -0.248048  0  3.969107  0
C  C78  1  0.64246249  0.00398624  0.48753160  1  -0.191918  0  -0.021957  -0.118326  0  3.965395  0
C  C79  1  0.51127719  0.95779268  0.53155521  1  -0.141401  0  -0.019482  0.00676  0  4.08641  0
C  C80  1  0.50134470  0.03895949  0.44808412  1  -0.126099  0  -0.033427  -0.138057  0  4.114623  0
C  C81  1  0.17321461  0.51841907  0.02079110  1  -0.012291  0  -0.235809  -0.402849  0  3.978302  0
C  C82  1  0.16457173  0.60098211  0.82447886  1  -0.037809  0  -0.24283  -0.417277  0  3.984102  0
C  C83  1  0.78945316  0.52411957  0.00805732  1  -0.088582  0  -0.236412  -0.399985  0  3.983503  0
C  C84  1  0.91237585  0.32898429  0.09252391  1  -0.026657  0  -0.242478  -0.411664  0  3.984471  0
S  S85  1  0.08352376  0.41718491  0.40638453  1  0.281002  0  0.089936  0.145233  0  2.751607  0
S  S86  1  0.89265198  0.61130619  0.57596504  1  0.285165  0  0.094197  0.159124  0  2.75038  0
S  S87  1  0.42038856  0.08047525  0.10358524  1  0.282716  0  0.091595  0.149862  0  2.744142  0
S  S88  1  0.59494803  0.90777362  0.91222171  1  0.281792  0  0.09348  0.155829  0  2.754928  0
S  S89  1  0.89794813  0.09156563  0.92307850  1  0.268018  0  0.084963  0.139202  0  2.732455  0
S  S90  1  0.08143500  0.90307727  0.09201731  1  0.290466  0  0.095979  0.160622  0  2.735949  0
S  S91  1  0.42217296  0.59491280  0.40075406  1  0.272876  0  0.086557  0.142307  0  2.733144  0
S  S92  1  0.58983144  0.43071511  0.58584518  1  0.284466  0  0.096232  0.160838  0  2.734283  0
S  S93  1  0.41901625  0.90791381  0.58369580  1  0.279712  0  0.092012  0.149059  0  2.731913  0
S  S94  1  0.59165220  0.09047973  0.39718160  1  0.280877  0  0.089027  0.151067  0  2.741489  0
O  O95  1  0.92117566  0.78069420  0.55212652  1  -1.183654  0  -0.356864  -0.616076  0  2.300594  0
O  O96  1  0.24490868  0.05927825  0.27333112  1  -1.173045  0  -0.355903  -0.612181  0  2.280602  0
O  O97  1  0.06552171  0.23902917  0.43718217  1  -1.173446  0  -0.358095  -0.616282  0  2.275616  0
O  O98  1  0.75775186  0.94221854  0.73230295  1  -1.176604  0  -0.358439  -0.618693  0  2.291481  0
O  O99  1  0.05272343  0.77656862  0.73204482  1  -1.183474  0  -0.350838  -0.606709  0  2.319526  0
O  O100  1  0.76362629  0.07593189  0.42363978  1  -1.182081  0  -0.355146  -0.619316  0  2.261715  0
O  O101  1  0.93689249  0.23935275  0.27055608  1  -1.180933  0  -0.354142  -0.614008  0  2.3159  0
O  O102  1  0.23667095  0.93073401  0.56895634  1  -1.178981  0  -0.353151  -0.612738  0  2.246103  0
O  O103  1  0.23915796  0.76645783  0.42671063  1  -1.171813  0  -0.353758  -0.615027  0  2.246976  0
O  O104  1  0.92090430  0.07207994  0.74421359  1  -1.180852  0  -0.355586  -0.619752  0  2.246475  0
O  O105  1  0.76194495  0.24902047  0.56748752  1  -1.171304  0  -0.351949  -0.614821  0  2.26276  0
O  O106  1  0.06638468  0.93262523  0.26142505  1  -1.178806  0  -0.352679  -0.614155  0  2.26394  0
O  O107  1  0.05797217  0.93260005  0.74030217  1  -1.170901  0  -0.359366  -0.613002  0  2.276695  0
O  O108  1  0.76714304  0.24698356  0.42758879  1  -1.178221  0  -0.358033  -0.613066  0  2.261626  0
O  O109  1  0.93074863  0.07355304  0.26273395  1  -1.175825  0  -0.357178  -0.613851  0  2.270281  0
O  O110  1  0.23214001  0.77039882  0.56650476  1  -1.167355  0  -0.359855  -0.614834  0  2.289231  0
O  O111  1  0.91797254  0.77802048  0.72536429  1  -1.178701  0  -0.366008  -0.625767  0  2.297045  0
O  O112  1  0.23671182  0.06611072  0.43512664  1  -1.170125  0  -0.364851  -0.614914  0  2.302302  0
O  O113  1  0.07686437  0.23261744  0.27210609  1  -1.179729  0  -0.362827  -0.622131  0  2.296775  0
O  O114  1  0.76044604  0.94214985  0.55920958  1  -1.180398  0  -0.360497  -0.611448  0  2.282062  0
O  O115  1  0.75714779  0.07863124  0.73807140  1  -1.179724  0  -0.35576  -0.61055  0  2.250645  0
O  O116  1  0.06531084  0.77234714  0.41857647  1  -1.180067  0  -0.355813  -0.609375  0  2.250332  0
O  O117  1  0.24218338  0.92476572  0.26737924  1  -1.168509  0  -0.361386  -0.615059  0  2.267945  0
O  O118  1  0.92460719  0.24276473  0.57419880  1  -1.173402  0  -0.358857  -0.612739  0  2.267169  0
O  O119  1  0.81466478  0.07094888  0.55746678  1  -1.241661  0  -0.692744  -1.069627  0  2.351825  0
O  O120  1  0.05620381  0.06345941  0.56502093  1  -1.249771  0  -0.692639  -1.069873  0  2.352479  0
O  O121  1  0.06347777  0.06042117  0.32075062  1  -1.226141  0  -0.694354  -1.069092  0  2.368207  0
O  O122  1  0.05489722  0.82701900  0.55353591  1  -1.254569  0  -0.695962  -1.072003  0  2.36962  0
O  O123  1  0.13155136  0.95738595  0.45685392  1  -1.200044  0  -0.78856  -1.149089  0  2.119219  0
O  O124  1  0.95358478  0.96334204  0.45060067  1  -1.200051  0  -0.788663  -1.1476  0  2.115044  0
O  O125  1  0.95493075  0.13692225  0.45886581  1  -1.198132  0  -0.790423  -1.148144  0  2.128522  0
O  O126  1  0.94888311  0.96458056  0.63058432  1  -1.200349  0  -0.790822  -1.148688  0  2.12969  0
F  F127  1  0.83951724  0.41278991  0.63619122  1  -0.625201  0  -0.088739  -0.108745  0  1.351583  0
F  F128  1  0.40312666  0.84856930  0.11078360  1  -0.620049  0  -0.088948  -0.108696  0  1.350974  0
F  F129  1  0.12623014  0.85012498  0.89709807  1  -0.623325  0  -0.085955  -0.10571  0  1.353983  0
F  F130  1  0.38834600  0.62798924  0.63625758  1  -0.620885  0  -0.082497  -0.100738  0  1.362718  0
F  F131  1  0.39395333  0.13363941  0.35259143  1  -0.623529  0  -0.0871  -0.107415  0  1.361799  0
