# generated using pymatgen
data_Zr6H20C54S10O41
_symmetry_space_group_name_H-M   'P 1'
_cell_length_a   16.44961045
_cell_length_b   16.41994844
_cell_length_c   16.50139959
_cell_angle_alpha   61.98815881
_cell_angle_beta   59.78983929
_cell_angle_gamma   60.32193110
_symmetry_Int_Tables_number   1
_chemical_formula_structural   Zr6H20C54S10O41
_chemical_formula_sum   'Zr6 H20 C54 S10 O41'
_cell_volume   3198.86830100
_cell_formula_units_Z   1
loop_
 _symmetry_equiv_pos_site_id
 _symmetry_equiv_pos_as_xyz
  1  'x, y, z'
loop_
 _atom_site_type_symbol
 _atom_site_label
 _atom_site_symmetry_multiplicity
 _atom_site_fract_x
 _atom_site_fract_y
 _atom_site_fract_z
 _atom_site_occupancy
 _atom_site_pbe_bader_charge
 _atom_site_pbe_bader_spin_density
 _atom_site_pbe_cm5_charge
 _atom_site_pbe_ddec_charge
 _atom_site_pbe_ddec_spin_density
 _atom_site_pbe_ddec_sum_bond_order
 _atom_site_pbe_magmom
Zr  Zr0  1  0.88888537  0.90346658  0.59511033  1  2.63212  0  1.627367  2.371246  0  2.791088  0
Zr  Zr1  1  0.11407943  0.10176547  0.39745933  1  2.642313  0  1.633224  2.373334  0  2.780785  0
Zr  Zr2  1  0.10382373  0.89310785  0.60565315  1  2.638212  0  1.626607  2.375829  0  2.739315  0
Zr  Zr3  1  0.89976335  0.11130803  0.38765404  1  2.634519  0  1.616976  2.374963  0  2.740225  0
Zr  Zr4  1  0.11133610  0.89265819  0.38719169  1  2.637695  0  1.620156  2.37549  0  2.728733  0
Zr  Zr5  1  0.89189677  0.11122809  0.60670422  1  2.63949  0  1.620065  2.375811  0  2.728764  0
H  H6  1  0.07952783  0.75260791  0.57364565  1  0.590799  0  0.330604  0.422515  0  0.857705  0
H  H7  1  0.09599256  0.08005355  0.24667479  1  0.597024  0  0.330603  0.42251  0  0.859413  0
H  H8  1  0.08372911  0.08108017  0.59019148  1  0.603341  0  0.33265  0.426441  0  0.850539  0
H  H9  1  0.74601116  0.09505311  0.57562050  1  0.608303  0  0.330329  0.424095  0  0.856458  0
H  H10  1  0.12359269  0.61348231  0.35707884  1  0.130097  0  0.122413  0.147805  0  0.967873  0
H  H11  1  0.60947985  0.12878950  0.89770544  1  0.108945  0  0.124642  0.150321  0  0.964408  0
H  H12  1  0.87484980  0.12928734  0.11098300  1  0.139807  0  0.12228  0.149154  0  0.967767  0
H  H13  1  0.62672902  0.39791959  0.35926068  1  0.115919  0  0.118723  0.146298  0  0.973664  0
H  H14  1  0.10230000  0.63735017  0.86338638  1  0.115928  0  0.115511  0.125085  0  1.013937  0
H  H15  1  0.84427279  0.64938910  0.84877685  1  0.118421  0  0.117102  0.127773  0  0.991179  0
H  H16  1  0.89827728  0.37011670  0.13022363  1  0.107516  0  0.112228  0.119992  0  1.01982  0
H  H17  1  0.15643076  0.35735809  0.14545600  1  0.124783  0  0.119955  0.131677  0  0.985813  0
H  H18  1  0.62347394  0.87650623  0.60760158  1  0.144989  0  0.12096  0.146326  0  0.973282  0
H  H19  1  0.82014880  0.44080508  0.68625079  1  0.590245  0  0.34459  0.371872  0  0.861336  0
H  H20  1  0.44758462  0.81285364  0.05923855  1  0.599153  0  0.341092  0.366164  0  0.869122  0
H  H21  1  0.16518880  0.80365442  0.93839155  1  0.60243  0  0.33915  0.368076  0  0.870484  0
H  H22  1  0.42115947  0.57075229  0.68340248  1  0.587948  0  0.342813  0.370091  0  0.861412  0
H  H23  1  0.43233171  0.17258852  0.31848597  1  0.608389  0  0.341386  0.366179  0  0.867874  0
H  H24  1  0.09670836  0.64436649  0.99182725  1  0.614449  0  0.332869  0.367061  0  0.891797  0
H  H25  1  0.76695044  0.50431264  0.13376180  1  0.609145  0  0.334481  0.367505  0  0.884019  0
C  C26  1  0.99537547  0.73941456  0.48220403  1  1.566448  0  0.22396  0.638939  0  4.163468  0
C  C27  1  0.28381554  0.98735485  0.23423475  1  1.541308  0  0.220786  0.657268  0  4.154789  0
C  C28  1  0.99802475  0.27199318  0.50528224  1  1.545204  0  0.221477  0.65656  0  4.153171  0
C  C29  1  0.72520996  0.00914170  0.76674847  1  1.575621  0  0.224813  0.639649  0  4.164011  0
C  C30  1  0.98101017  0.73941932  0.76259153  1  1.569915  0  0.234713  0.632236  0  4.11665  0
C  C31  1  0.73257329  0.00740765  0.48364669  1  1.589464  0  0.223818  0.640951  0  4.162626  0
C  C32  1  0.01700399  0.26961696  0.23383235  1  1.572595  0  0.235436  0.634276  0  4.110948  0
C  C33  1  0.27688861  0.99085239  0.50121863  1  1.560834  0  0.2218  0.6572  0  4.156912  0
C  C34  1  0.27340449  0.72930027  0.49538763  1  1.562045  0  0.220587  0.655735  0  4.151863  0
C  C35  1  0.98996420  0.99467565  0.77822128  1  1.576994  0  0.219949  0.655789  0  4.153571  0
C  C36  1  0.73573622  0.28203395  0.49160482  1  1.560255  0  0.222875  0.638529  0  4.163539  0
C  C37  1  0.00231390  0.99979161  0.22453558  1  1.592895  0  0.225686  0.642564  0  4.15743  0
C  C38  1  0.92865373  0.41975549  0.56711524  1  0.574263  0  0.084879  0.277508  0  4.106175  0
C  C39  1  0.06146702  0.59331995  0.42054252  1  0.005588  0  -0.087103  -0.131636  0  3.958815  0
C  C40  1  0.99519975  0.36338379  0.50220038  1  -0.082504  0  -0.040151  -0.244746  0  3.93144  0
C  C41  1  0.99495380  0.64921921  0.48458706  1  -0.167  0  -0.021782  -0.110655  0  3.967608  0
C  C42  1  0.03725596  0.50985869  0.44994613  1  -0.137856  0  -0.022835  0.007498  0  4.105462  0
C  C43  1  0.95283653  0.50395530  0.53646659  1  -0.160432  0  -0.040164  -0.160646  0  4.119616  0
C  C44  1  0.42503632  0.92402386  0.08795125  1  0.616651  0  0.082335  0.273605  0  4.11092  0
C  C45  1  0.58941190  0.06630878  0.91724470  1  0.095907  0  -0.083935  -0.126588  0  3.949073  0
C  C46  1  0.37263883  0.98728717  0.14576643  1  -0.129766  0  -0.039234  -0.245316  0  3.934067  0
C  C47  1  0.64016413  0.00420342  0.85960694  1  -0.193287  0  -0.021655  -0.108058  0  3.962003  0
C  C48  1  0.51107766  0.03719573  0.00091949  1  -0.180455  0  -0.021471  0.008029  0  4.09954  0
C  C49  1  0.50432022  0.95301624  0.00498807  1  -0.145088  0  -0.041222  -0.160996  0  4.127882  0
C  C50  1  0.05401013  0.92212541  0.92024419  1  0.553856  0  0.080843  0.271212  0  4.101164  0
C  C51  1  0.93295062  0.06438808  0.08920091  1  0.072542  0  -0.086257  -0.131555  0  3.953046  0
C  C52  1  0.98965134  0.99182733  0.86827844  1  -0.082529  0  -0.041263  -0.247412  0  3.926543  0
C  C53  1  0.99818389  0.99644881  0.13910301  1  -0.221283  0  -0.021534  -0.109065  0  3.953114  0
C  C54  1  0.95305134  0.03773813  0.00934011  1  -0.13681  0  -0.022735  0.010136  0  4.097251  0
C  C55  1  0.03315291  0.94908011  0.00059533  1  -0.166297  0  -0.04216  -0.163454  0  4.122617  0
C  C56  1  0.41210762  0.59267905  0.56303654  1  0.522041  0  0.085268  0.277702  0  4.098137  0
C  C57  1  0.59977200  0.42136194  0.42274738  1  0.086153  0  -0.090777  -0.138711  0  3.963315  0
C  C58  1  0.36430044  0.64338828  0.49436668  1  -0.066953  0  -0.039747  -0.244388  0  3.920104  0
C  C59  1  0.64683830  0.37151271  0.49090035  1  -0.207368  0  -0.022418  -0.110837  0  3.957854  0
C  C60  1  0.51452838  0.50238196  0.44830159  1  -0.140453  0  -0.024006  0.009503  0  4.102188  0
C  C61  1  0.49829984  0.51223688  0.53604581  1  -0.149745  0  -0.041208  -0.163027  0  4.116895  0
C  C62  1  0.04229977  0.60780512  0.89671794  1  -0.018369  0  -0.077482  -0.146566  0  3.932121  0
C  C63  1  0.89657131  0.61451924  0.88704036  1  0.023346  0  -0.06785  -0.093874  0  3.936251  0
C  C64  1  0.88758926  0.53507021  0.96999270  1  -0.073734  0  -0.015218  -0.10887  0  3.987297  0
C  C65  1  0.95746494  0.48808679  0.01939869  1  0.024072  0  -0.00154  0.056014  0  3.982512  0
C  C66  1  0.95436190  0.40336019  0.10134021  1  -0.050892  0  -0.079154  -0.149373  0  3.944879  0
C  C67  1  0.10141795  0.39502553  0.10986618  1  -0.000206  0  -0.06493  -0.089608  0  3.921209  0
C  C68  1  0.10734028  0.47776025  0.03008252  1  -0.040021  0  -0.013686  -0.106109  0  3.979202  0
C  C69  1  0.03618833  0.52623222  0.98185629  1  -0.042048  0  -0.000302  0.055893  0  3.981501  0
C  C70  1  0.97340524  0.65174784  0.85106947  1  -0.034467  0  -0.009625  -0.015157  0  3.967507  0
C  C71  1  0.02396129  0.35833691  0.14630016  1  0.038149  0  -0.009741  -0.014955  0  3.963367  0
C  C72  1  0.41708046  0.05930003  0.42865873  1  0.573329  0  0.084952  0.275988  0  4.098306  0
C  C73  1  0.59776057  0.93574928  0.54896523  1  0.01584  0  -0.087084  -0.130087  0  3.957385  0
C  C74  1  0.36764678  0.99157118  0.49602135  1  -0.10283  0  -0.039085  -0.243161  0  3.924844  0
C  C75  1  0.64554735  0.00372439  0.48299171  1  -0.164873  0  -0.022182  -0.110382  0  3.961128  0
C  C76  1  0.51468934  0.95526130  0.52931131  1  -0.144192  0  -0.022745  0.009017  0  4.102216  0
C  C77  1  0.50125393  0.03807467  0.44815301  1  -0.158286  0  -0.039909  -0.159473  0  4.119696  0
C  C78  1  0.19170225  0.51182039  0.99743365  1  1.511434  0  0.230221  0.580367  0  4.108366  0
C  C79  1  0.80237730  0.50187104  0.00379609  1  1.498296  0  0.22946  0.578002  0  4.114006  0
S  S80  1  0.08695597  0.41256786  0.40542124  1  0.264065  0  0.071743  0.119242  0  2.762589  0
S  S81  1  0.90256166  0.60140635  0.58108036  1  0.244793  0  0.073732  0.12196  0  2.781608  0
S  S82  1  0.42040268  0.08091494  0.09907601  1  0.275763  0  0.081178  0.13292  0  2.7565  0
S  S83  1  0.59402631  0.90965325  0.90619067  1  0.224838  0  0.064701  0.107759  0  2.786116  0
S  S84  1  0.90346479  0.08846953  0.91890208  1  0.25206  0  0.075861  0.12474  0  2.745979  0
S  S85  1  0.08406968  0.89899073  0.09010278  1  0.220816  0  0.068847  0.115788  0  2.766352  0
S  S86  1  0.42464276  0.59228325  0.39809299  1  0.251181  0  0.070477  0.117519  0  2.745605  0
S  S87  1  0.58814328  0.42256325  0.58655504  1  0.232379  0  0.074648  0.123838  0  2.766442  0
S  S88  1  0.42436688  0.90279273  0.58186440  1  0.263624  0  0.074242  0.121066  0  2.737297  0
S  S89  1  0.59068070  0.09169425  0.39600084  1  0.230954  0  0.069294  0.113358  0  2.763695  0
O  O90  1  0.92349266  0.77794559  0.54986585  1  -1.176249  0  -0.359773  -0.617344  0  2.300058  0
O  O91  1  0.24919678  0.05608501  0.27172091  1  -1.171543  0  -0.360587  -0.619256  0  2.285377  0
O  O92  1  0.07090422  0.23345053  0.43766072  1  -1.176484  0  -0.362918  -0.622754  0  2.283156  0
O  O93  1  0.75802073  0.94284086  0.72696180  1  -1.180101  0  -0.35947  -0.619849  0  2.294687  0
O  O94  1  0.05243873  0.76898301  0.73273150  1  -1.174583  0  -0.340574  -0.599497  0  2.278849  0
O  O95  1  0.76800441  0.07538933  0.41777888  1  -1.175649  0  -0.352331  -0.616248  0  2.252796  0
O  O96  1  0.94555373  0.23978776  0.26352127  1  -1.180568  0  -0.347821  -0.612929  0  2.269414  0
O  O97  1  0.23999220  0.92441777  0.56967113  1  -1.181808  0  -0.354987  -0.618355  0  2.236366  0
O  O98  1  0.24106263  0.76182535  0.42566354  1  -1.169842  0  -0.358456  -0.62321  0  2.250584  0
O  O99  1  0.92318151  0.06678965  0.74336287  1  -1.18466  0  -0.35716  -0.621307  0  2.250715  0
O  O100  1  0.76587562  0.24716976  0.56293674  1  -1.168357  0  -0.347694  -0.608288  0  2.261473  0
O  O101  1  0.07106132  0.93054466  0.25756667  1  -1.183323  0  -0.350587  -0.611876  0  2.263688  0
O  O102  1  0.05838497  0.92568759  0.73999417  1  -1.170626  0  -0.364261  -0.606692  0  2.281182  0
O  O103  1  0.77410337  0.24606589  0.42098243  1  -1.177208  0  -0.362623  -0.618885  0  2.260594  0
O  O104  1  0.93695329  0.07288939  0.25755806  1  -1.181566  0  -0.361257  -0.61629  0  2.26065  0
O  O105  1  0.23219844  0.76505434  0.56674878  1  -1.175461  0  -0.364019  -0.605968  0  2.283611  0
O  O106  1  0.91468594  0.77660028  0.72444951  1  -1.175677  0  -0.35522  -0.611384  0  2.296777  0
O  O107  1  0.24022003  0.05957967  0.43574931  1  -1.170661  0  -0.369012  -0.604204  0  2.317164  0
O  O108  1  0.08433226  0.23105890  0.27079485  1  -1.169331  0  -0.349686  -0.604397  0  2.298019  0
O  O109  1  0.76430098  0.94120591  0.55308731  1  -1.188736  0  -0.363723  -0.61368  0  2.29239  0
O  O110  1  0.75847762  0.07871018  0.73330577  1  -1.180275  0  -0.355975  -0.608167  0  2.258131  0
O  O111  1  0.06730992  0.77037621  0.41531897  1  -1.168607  0  -0.354484  -0.606874  0  2.253783  0
O  O112  1  0.24601765  0.92122256  0.26641770  1  -1.168612  0  -0.363328  -0.606071  0  2.272431  0
O  O113  1  0.92923563  0.23692201  0.57423479  1  -1.166994  0  -0.362961  -0.603923  0  2.27086  0
O  O114  1  0.81847055  0.06970517  0.55246136  1  -1.237985  0  -0.693272  -1.06983  0  2.354876  0
O  O115  1  0.05990117  0.05801538  0.56455632  1  -1.230274  0  -0.693188  -1.071523  0  2.356671  0
O  O116  1  0.06855929  0.05832653  0.31772618  1  -1.226363  0  -0.693567  -1.070644  0  2.362629  0
O  O117  1  0.05627797  0.82367325  0.55194658  1  -1.220232  0  -0.694411  -1.071487  0  2.365545  0
O  O118  1  0.13485476  0.95300426  0.45568923  1  -1.196265  0  -0.789643  -1.149814  0  2.132688  0
O  O119  1  0.95745507  0.96135356  0.44638706  1  -1.201591  0  -0.789515  -1.147442  0  2.118345  0
O  O120  1  0.95988698  0.13412216  0.45581038  1  -1.200743  0  -0.78902  -1.150653  0  2.119687  0
O  O121  1  0.95114692  0.96101499  0.62846149  1  -1.201048  0  -0.789126  -1.149992  0  2.119086  0
O  O122  1  0.85205643  0.39531159  0.64811866  1  -1.085995  0  -0.328878  -0.399341  0  2.279867  0
O  O123  1  0.40115034  0.84621834  0.10962983  1  -1.094849  0  -0.330428  -0.398966  0  2.283442  0
O  O124  1  0.12582716  0.83952363  0.89583095  1  -1.100639  0  -0.331062  -0.399665  0  2.298951  0
O  O125  1  0.37859888  0.61804000  0.64453111  1  -1.075982  0  -0.327916  -0.396323  0  2.277561  0
O  O126  1  0.38696382  0.13520399  0.35534739  1  -1.104241  0  -0.326242  -0.394976  0  2.295869  0
O  O127  1  0.16787638  0.60938728  0.98180462  1  -1.114582  0  -0.34351  -0.488018  0  2.225873  0
O  O128  1  0.27744307  0.45708773  0.98795883  1  -1.117604  0  -0.28608  -0.449766  0  2.027713  0
O  O129  1  0.74311759  0.48864826  0.10099020  1  -1.102022  0  -0.342289  -0.479433  0  2.198622  0
O  O130  1  0.78226723  0.48998359  0.94950349  1  -1.10242  0  -0.288114  -0.451949  0  2.028427  0
