# generated using pymatgen
data_CdH18C18(NO)4
_symmetry_space_group_name_H-M   'P 1'
_cell_length_a   11.90542037
_cell_length_b   13.63572643
_cell_length_c   15.83850226
_cell_angle_alpha   92.23521253
_cell_angle_beta   112.07452491
_cell_angle_gamma   89.99052722
_symmetry_Int_Tables_number   1
_chemical_formula_structural   CdH18C18(NO)4
_chemical_formula_sum   'Cd4 H72 C72 N16 O16'
_cell_volume   2380.62269686
_cell_formula_units_Z   4
loop_
 _symmetry_equiv_pos_site_id
 _symmetry_equiv_pos_as_xyz
  1  'x, y, z'
loop_
 _atom_site_type_symbol
 _atom_site_label
 _atom_site_symmetry_multiplicity
 _atom_site_fract_x
 _atom_site_fract_y
 _atom_site_fract_z
 _atom_site_occupancy
 _atom_site_pbe_bader_charge
 _atom_site_pbe_bader_spin_density
 _atom_site_pbe_cm5_charge
 _atom_site_pbe_ddec_charge
 _atom_site_pbe_ddec_spin_density
 _atom_site_pbe_ddec_sum_bond_order
 _atom_site_pbe_magmom
Cd  Cd0  1  0.44949071  0.36728802  0.45133464  1  1.274164  0  0.76206  0.866886  0  2.182843  0
Cd  Cd1  1  0.99818944  0.13255045  0.54885965  1  1.279068  0  0.76204  0.866637  0  2.183755  0
Cd  Cd2  1  0.55051324  0.63270920  0.54866732  1  1.274209  0  0.762052  0.866871  0  2.182849  0
Cd  Cd3  1  0.00180757  0.86745043  0.45113818  1  1.279138  0  0.762051  0.866668  0  2.183852  0
H  H4  1  0.30049956  0.41156759  0.24428168  1  0.121832  0  0.117462  0.096788  0  1.012899  0
H  H5  1  0.05602474  0.08794113  0.75601723  1  0.142492  0  0.11762  0.096974  0  1.012185  0
H  H6  1  0.69950313  0.58843330  0.75572271  1  0.121829  0  0.117454  0.096807  0  1.012882  0
H  H7  1  0.94397743  0.91206195  0.24398217  1  0.14245  0  0.117641  0.096995  0  1.012183  0
H  H8  1  0.31998968  0.40859854  0.09120225  1  0.107583  0  0.110777  0.114265  0  1.008159  0
H  H9  1  0.22861518  0.09094751  0.90907704  1  0.081023  0  0.11081  0.114373  0  1.007885  0
H  H10  1  0.68001307  0.59140234  0.90879859  1  0.107532  0  0.110774  0.114252  0  1.008176  0
H  H11  1  0.77138757  0.90905190  0.09092197  1  0.080885  0  0.110798  0.114337  0  1.007928  0
H  H12  1  0.70610292  0.38044934  0.23456733  1  0.090727  0  0.110484  0.116841  0  0.999708  0
H  H13  1  0.47125509  0.11930762  0.76565466  1  0.096123  0  0.110362  0.117097  0  0.99938  0
H  H14  1  0.29389982  0.61955081  0.76543349  1  0.090762  0  0.110456  0.116869  0  0.999614  0
H  H15  1  0.52874504  0.88068812  0.23434347  1  0.095908  0  0.110334  0.117094  0  0.999315  0
H  H16  1  0.67055991  0.38710116  0.37949148  1  0.106664  0  0.123316  0.098922  0  0.978256  0
H  H17  1  0.29077757  0.11262097  0.62075726  1  0.10876  0  0.123135  0.098769  0  0.978582  0
H  H18  1  0.32944277  0.61289679  0.62051014  1  0.106711  0  0.123303  0.098869  0  0.978287  0
H  H19  1  0.70922390  0.88737991  0.37924320  1  0.10878  0  0.123128  0.098769  0  0.978566  0
H  H20  1  0.65077661  0.37286662  0.99037122  1  0.083694  0  0.098573  0.140789  0  1.029713  0
H  H21  1  0.66009365  0.12700715  0.00969135  1  0.089897  0  0.098648  0.140812  0  1.029389  0
H  H22  1  0.34922168  0.62713500  0.00962789  1  0.083704  0  0.098557  0.140764  0  1.02973  0
H  H23  1  0.33990976  0.87299373  0.99030834  1  0.089896  0  0.098623  0.1408  0  1.02944  0
H  H24  1  0.69576533  0.30605811  0.09270007  1  0.052815  0  0.099529  0.145538  0  0.999064  0
H  H25  1  0.60245896  0.19383349  0.90737303  1  0.061129  0  0.099654  0.145707  0  0.998306  0
H  H26  1  0.30423807  0.69394277  0.90730051  1  0.05277  0  0.099529  0.145526  0  0.999087  0
H  H27  1  0.39753993  0.80616739  0.09262758  1  0.061228  0  0.099657  0.145697  0  0.998334  0
H  H28  1  0.71207494  0.43581354  0.09954810  1  0.059824  0  0.098479  0.145871  0  1.006212  0
H  H29  1  0.61226390  0.06409958  0.90050117  1  0.052826  0  0.098399  0.146114  0  1.005665  0
H  H30  1  0.28792653  0.56418808  0.90045328  1  0.05987  0  0.098453  0.145842  0  1.006291  0
H  H31  1  0.38774016  0.93590203  0.09949918  1  0.053148  0  0.098405  0.146123  0  1.005676  0
H  H32  1  0.22062342  0.37010076  0.90165279  1  0.075201  0  0.097981  0.139418  0  1.025157  0
H  H33  1  0.31900948  0.12953127  0.09869245  1  0.083761  0  0.097765  0.139077  0  1.024787  0
H  H34  1  0.77937407  0.62989646  0.09834997  1  0.075268  0  0.097945  0.139339  0  1.025058  0
H  H35  1  0.68098559  0.87046740  0.90130340  1  0.083857  0  0.097752  0.13908  0  1.024843  0
H  H36  1  0.17037812  0.29872674  0.79618123  1  0.087957  0  0.102051  0.154358  0  1.004686  0
H  H37  1  0.37429144  0.20087783  0.20419239  1  0.056393  0  0.101921  0.153968  0  1.00545  0
H  H38  1  0.82962131  0.70127121  0.20382168  1  0.08799  0  0.102037  0.154323  0  1.004713  0
H  H39  1  0.62570296  0.79912084  0.79580461  1  0.056376  0  0.101886  0.15392  0  1.005459  0
H  H40  1  0.16907174  0.42735420  0.79355748  1  0.068338  0  0.102464  0.148226  0  0.985021  0
H  H41  1  0.37584960  0.07222462  0.20679715  1  0.052438  0  0.10229  0.148054  0  0.984307  0
H  H42  1  0.83092638  0.57264229  0.20644500  1  0.068209  0  0.102454  0.148234  0  0.984938  0
H  H43  1  0.62415318  0.92777479  0.79320097  1  0.052377  0  0.102323  0.14806  0  0.984306  0
H  H44  1  0.17467110  0.35857991  0.65543691  1  0.133861  0  0.109159  0.130926  0  1.03327  0
H  H45  1  0.51937695  0.14104723  0.34482299  1  0.15744  0  0.109459  0.131345  0  1.033486  0
H  H46  1  0.82532903  0.64141877  0.34456399  1  0.133867  0  0.109146  0.130909  0  1.033329  0
H  H47  1  0.48061643  0.85896391  0.65517232  1  0.157504  0  0.10943  0.131288  0  1.033505  0
H  H48  1  0.22202955  0.35101232  0.51583231  1  0.141226  0  0.12734  0.112538  0  0.973446  0
H  H49  1  0.70626597  0.14878326  0.48436322  1  0.139365  0  0.127311  0.112533  0  0.973703  0
H  H50  1  0.77797054  0.64898489  0.48416943  1  0.141186  0  0.127348  0.112527  0  0.973426  0
H  H51  1  0.29372296  0.85122934  0.51563039  1  0.139097  0  0.127323  0.112507  0  0.973649  0
H  H52  1  0.59085997  0.33642309  0.66406955  1  0.097257  0  0.115696  0.08917  0  1.021915  0
H  H53  1  0.92681723  0.16393947  0.33613278  1  0.113438  0  0.115689  0.089399  0  1.021364  0
H  H54  1  0.40913878  0.66357267  0.33593353  1  0.097288  0  0.115721  0.08926  0  1.02188  0
H  H55  1  0.07317912  0.83606362  0.66386805  1  0.113389  0  0.115663  0.0894  0  1.021298  0
H  H56  1  0.56103536  0.35063241  0.81246887  1  0.089667  0  0.104283  0.102849  0  1.035104  0
H  H57  1  0.74858675  0.14971524  0.18774101  1  0.084752  0  0.10463  0.103013  0  1.034319  0
H  H58  1  0.43896268  0.64936114  0.18753528  1  0.089738  0  0.104313  0.10288  0  1.035069  0
H  H59  1  0.25141222  0.85028931  0.81225884  1  0.084634  0  0.104634  0.102999  0  1.034346  0
H  H60  1  0.08619249  0.18821231  0.27357464  1  0.067174  0  0.090038  0.100092  0  0.99516  0
H  H61  1  0.81246279  0.31174675  0.72656276  1  0.070394  0  0.0898  0.099733  0  0.996198  0
H  H62  1  0.91380770  0.81178857  0.72642545  1  0.067153  0  0.090055  0.10013  0  0.995162  0
H  H63  1  0.18754572  0.68825046  0.27343652  1  0.070515  0  0.08983  0.099693  0  0.996197  0
H  H64  1  0.19557035  0.12673382  0.24049803  1  0.036223  0  0.092968  0.102331  0  0.991619  0
H  H65  1  0.95504381  0.37303962  0.75967190  1  0.03691  0  0.093192  0.102468  0  0.991893  0
H  H66  1  0.80442986  0.87326632  0.75950026  1  0.036308  0  0.092971  0.102334  0  0.991698  0
H  H67  1  0.04496348  0.62696273  0.24032897  1  0.037233  0  0.093129  0.10238  0  0.992016  0
H  H68  1  0.13174185  0.00370922  0.32205320  1  0.075912  0  0.096467  0.121078  0  1.003217  0
H  H69  1  0.80975585  0.49622495  0.67817822  1  0.067955  0  0.096623  0.121254  0  1.002636  0
H  H70  1  0.86825576  0.99629093  0.67794612  1  0.076049  0  0.096474  0.121037  0  1.003282  0
H  H71  1  0.19024241  0.50377667  0.32182268  1  0.068025  0  0.096562  0.121124  0  1.002619  0
H  H72  1  0.27471077  0.04801978  0.39608700  1  0.121317  0  0.106239  0.132899  0  0.962004  0
H  H73  1  0.87870642  0.45190777  0.60415163  1  0.085511  0  0.106246  0.132804  0  0.962991  0
H  H74  1  0.72528742  0.95198111  0.60391653  1  0.121283  0  0.106226  0.132884  0  0.962011  0
H  H75  1  0.12129383  0.54809751  0.39584951  1  0.085534  0  0.106238  0.132738  0  0.963013  0
C  C76  1  0.38850258  0.40698780  0.23792010  1  0.436817  0  0.042409  0.080203  0  3.962888  0
C  C77  1  0.15036769  0.09259567  0.76236395  1  0.420159  0  0.042187  0.079696  0  3.964077  0
C  C78  1  0.61149948  0.59301161  0.76208183  1  0.43681  0  0.042439  0.080197  0  3.962925  0
C  C79  1  0.84963314  0.90740448  0.23763586  1  0.420202  0  0.042236  0.079739  0  3.964245  0
C  C80  1  0.39953262  0.40419858  0.15384735  1  0.040194  0  -0.076836  -0.150197  0  3.944377  0
C  C81  1  0.24547987  0.09536904  0.84641941  1  0.043183  0  -0.076427  -0.148671  0  3.946114  0
C  C82  1  0.60047008  0.59580157  0.84615524  1  0.040157  0  -0.076853  -0.150179  0  3.944364  0
C  C83  1  0.75452221  0.90462891  0.15357980  1  0.042984  0  -0.076395  -0.148575  0  3.946015  0
C  C84  1  0.51461198  0.39278384  0.14941171  1  -0.023188  0  0.009897  0.061501  0  3.957029  0
C  C85  1  0.36496555  0.10683483  0.85081387  1  -0.065653  0  0.010219  0.059631  0  3.96365  0
C  C86  1  0.48538947  0.60721778  0.85059056  1  -0.023164  0  0.009883  0.061483  0  3.957232  0
C  C87  1  0.63503456  0.89315871  0.14918328  1  -0.065344  0  0.010268  0.059693  0  3.963626  0
C  C88  1  0.61417678  0.38878995  0.23237686  1  -0.062073  0  -0.081285  -0.164102  0  3.93874  0
C  C89  1  0.38153063  0.11088777  0.76784499  1  -0.017921  0  -0.08073  -0.163426  0  3.940224  0
C  C90  1  0.38582720  0.61121094  0.76762702  1  -0.061778  0  -0.081265  -0.164178  0  3.938841  0
C  C91  1  0.61847080  0.88910723  0.23215171  1  -0.017561  0  -0.080843  -0.163623  0  3.940416  0
C  C92  1  0.59523388  0.39232043  0.31403633  1  0.501566  0  0.053312  0.100312  0  3.950422  0
C  C93  1  0.28091888  0.10732715  0.68620413  1  0.510768  0  0.053654  0.100895  0  3.951581  0
C  C94  1  0.40476822  0.60768119  0.68596568  1  0.501239  0  0.053331  0.100403  0  3.950393  0
C  C95  1  0.71908258  0.89267226  0.31379539  1  0.509832  0  0.053705  0.100964  0  3.951568  0
C  C96  1  0.52916890  0.38285368  0.06090386  1  0.628008  0  0.152495  0.27167  0  3.889785  0
C  C97  1  0.46797914  0.11679449  0.93928761  1  0.635048  0  0.152154  0.269377  0  3.896175  0
C  C98  1  0.47083374  0.61714280  0.93909860  1  0.628059  0  0.152529  0.271646  0  3.889735  0
C  C99  1  0.53202287  0.88319978  0.06071146  1  0.634796  0  0.152167  0.269446  0  3.896156  0
C  C100  1  0.65431222  0.37402470  0.06032894  1  -0.077804  0  -0.239023  -0.460401  0  3.940346  0
C  C101  1  0.59360015  0.12580378  0.93974830  1  -0.087081  0  -0.239368  -0.4601  0  3.939588  0
C  C102  1  0.34568988  0.62597618  0.93967216  1  -0.077787  0  -0.238982  -0.460316  0  3.940414  0
C  C103  1  0.40640065  0.87419563  0.06025237  1  -0.087816  0  -0.239361  -0.460134  0  3.939663  0
C  C104  1  0.21963025  0.36552730  0.83229756  1  -0.120253  0  -0.238991  -0.466573  0  3.950506  0
C  C105  1  0.38743493  0.13409975  0.16802769  1  -0.07913  0  -0.238209  -0.465373  0  3.949957  0
C  C106  1  0.78036788  0.63446992  0.16770584  1  -0.120307  0  -0.238964  -0.466541  0  3.950237  0
C  C107  1  0.61256079  0.86589965  0.83196882  1  -0.079104  0  -0.238208  -0.465347  0  3.950015  0
C  C108  1  0.34631692  0.36526576  0.83427662  1  0.638289  0  0.151475  0.265522  0  3.903891  0
C  C109  1  0.51209537  0.13459450  0.16597012  1  0.611941  0  0.150856  0.264487  0  3.904017  0
C  C110  1  0.65368059  0.63473145  0.16572526  1  0.638231  0  0.151518  0.265737  0  3.903621  0
C  C111  1  0.48790169  0.86540857  0.83402690  1  0.611804  0  0.150824  0.26449  0  3.903867  0
C  C112  1  0.36579556  0.35787975  0.74738173  1  -0.062389  0  0.003613  0.046212  0  3.99053  0
C  C113  1  0.61849948  0.14203882  0.25284736  1  -0.079602  0  0.004271  0.047756  0  3.989658  0
C  C114  1  0.63420263  0.64211967  0.25262086  1  -0.062442  0  0.003636  0.046255  0  3.990436  0
C  C115  1  0.38149634  0.85796793  0.74715120  1  -0.079621  0  0.004238  0.04759  0  3.989552  0
C  C116  1  0.26937239  0.35704417  0.66226407  1  -0.036192  0  -0.078731  -0.16166  0  3.893831  0
C  C117  1  0.60722481  0.14276558  0.33797480  1  -0.056147  0  -0.079094  -0.161666  0  3.894969  0
C  C118  1  0.73062834  0.64295378  0.33773832  1  -0.036023  0  -0.078817  -0.161787  0  3.893883  0
C  C119  1  0.39276789  0.85724189  0.66201886  1  -0.05613  0  -0.079  -0.161386  0  3.894698  0
C  C120  1  0.29478201  0.35204006  0.58301869  1  0.513333  0  0.059379  0.113514  0  3.899577  0
C  C121  1  0.71185425  0.14785849  0.41719815  1  0.51952  0  0.059604  0.112787  0  3.901437  0
C  C122  1  0.70521740  0.64795568  0.41698324  1  0.513264  0  0.05946  0.11359  0  3.8995  0
C  C123  1  0.28813906  0.85214972  0.58279794  1  0.51978  0  0.059602  0.112768  0  3.901221  0
C  C124  1  0.50075286  0.34402846  0.66609935  1  0.506913  0  0.041398  0.085192  0  3.964246  0
C  C125  1  0.83470616  0.15620650  0.33412126  1  0.483442  0  0.040886  0.083533  0  3.965903  0
C  C126  1  0.49924582  0.65596288  0.33390268  1  0.507437  0  0.041453  0.085068  0  3.964199  0
C  C127  1  0.16529153  0.84379805  0.66587822  1  0.483536  0  0.040881  0.083486  0  3.965881  0
C  C128  1  0.48389941  0.35054566  0.74792922  1  -0.024051  0  -0.086341  -0.170077  0  3.996137  0
C  C129  1  0.73601541  0.14962580  0.25228925  1  -0.015865  0  -0.08642  -0.169824  0  3.995731  0
C  C130  1  0.51609930  0.64944789  0.25207378  1  -0.024594  0  -0.086441  -0.170181  0  3.996172  0
C  C131  1  0.26398231  0.85037949  0.74770937  1  -0.015659  0  -0.086372  -0.169745  0  3.995818  0
C  C132  1  0.26997677  0.23472022  0.34814481  1  1.54499  0  0.184249  0.612295  0  4.187076  0
C  C133  1  0.92161588  0.26507354  0.65195569  1  1.535554  0  0.183768  0.61131  0  4.188279  0
C  C134  1  0.73002404  0.76527919  0.65185497  1  1.544894  0  0.184287  0.612415  0  4.186954  0
C  C135  1  0.07838968  0.73493247  0.34803810  1  1.53541  0  0.183655  0.611032  0  4.18864  0
C  C136  1  0.17603147  0.15471479  0.29967623  1  -0.061135  0  -0.167281  -0.259222  0  3.95446  0
C  C137  1  0.87627239  0.34514873  0.70048539  1  -0.069805  0  -0.167207  -0.25849  0  3.955111  0
C  C138  1  0.82396800  0.84528242  0.70032398  1  -0.061224  0  -0.167285  -0.259271  0  3.954571  0
C  C139  1  0.12373557  0.65485435  0.29951436  1  -0.07031  0  -0.167189  -0.258319  0  3.95507  0
C  C140  1  0.17977318  0.06965001  0.36075328  1  -0.072201  0  -0.166831  -0.280916  0  3.928575  0
C  C141  1  0.81905554  0.43029162  0.63944057  1  -0.03182  0  -0.166981  -0.281067  0  3.928724  0
C  C142  1  0.82022371  0.93034941  0.63924983  1  -0.072116  0  -0.166809  -0.280813  0  3.928557  0
C  C143  1  0.18094722  0.56971073  0.36056121  1  -0.031868  0  -0.166899  -0.280818  0  3.928623  0
C  C144  1  0.12936339  0.09627473  0.43335006  1  1.511738  0  0.194406  0.614071  0  4.164714  0
C  C145  1  0.69598476  0.40383069  0.56682543  1  1.520122  0  0.194283  0.613704  0  4.164181  0
C  C146  1  0.87062780  0.90372542  0.56664828  1  1.512006  0  0.194365  0.613889  0  4.16462  0
C  C147  1  0.30401788  0.59616579  0.43317703  1  1.519908  0  0.194222  0.613604  0  4.164453  0
N  N148  1  0.48453013  0.39970964  0.31700203  1  -1.219361  0  -0.321819  -0.231716  0  3.493686  0
N  N149  1  0.16728023  0.09989272  0.68326748  1  -1.220628  0  -0.322517  -0.232084  0  3.495585  0
N  N150  1  0.51547066  0.60029125  0.68300047  1  -1.219332  0  -0.321839  -0.231743  0  3.493724  0
N  N151  1  0.83272129  0.90010889  0.31673124  1  -1.219704  0  -0.322583  -0.232164  0  3.495772  0
N  N152  1  0.42882667  0.38081528  0.98874419  1  -0.75664  0  -0.206377  -0.209386  0  3.292416  0
N  N153  1  0.43992876  0.11889745  0.01150641  1  -0.756677  0  -0.206189  -0.208209  0  3.292985  0
N  N154  1  0.57117528  0.61917900  0.01125844  1  -0.756694  0  -0.206335  -0.209285  0  3.292333  0
N  N155  1  0.56006945  0.88109902  0.98849162  1  -0.756062  0  -0.206178  -0.208206  0  3.29301  0
N  N156  1  0.44521661  0.37123922  0.90752610  1  -0.773226  0  -0.208391  -0.214973  0  3.329527  0
N  N157  1  0.53765236  0.12860230  0.09267175  1  -0.753384  0  -0.208367  -0.215157  0  3.329487  0
N  N158  1  0.55478090  0.62875726  0.09247486  1  -0.773075  0  -0.208453  -0.215159  0  3.329459  0
N  N159  1  0.46234466  0.87139930  0.90732610  1  -0.753392  0  -0.208328  -0.215119  0  3.329264  0
N  N160  1  0.40822730  0.34621676  0.58465587  1  -1.222043  0  -0.317842  -0.218345  0  3.466673  0
N  N161  1  0.82364885  0.15385621  0.41556083  1  -1.210698  0  -0.317774  -0.217451  0  3.467292  0
N  N162  1  0.59177271  0.65377679  0.41534662  1  -1.222253  0  -0.317859  -0.218245  0  3.466675  0
N  N163  1  0.17634243  0.84614760  0.58443587  1  -1.210912  0  -0.31781  -0.217463  0  3.467091  0
O  O164  1  0.37849090  0.20730529  0.39323945  1  -1.173559  0  -0.348983  -0.584261  0  2.167717  0
O  O165  1  0.98512417  0.29246509  0.60692515  1  -1.163282  0  -0.348801  -0.583934  0  2.167741  0
O  O166  1  0.62150852  0.79269267  0.60676435  1  -1.173582  0  -0.348991  -0.584322  0  2.167683  0
O  O167  1  0.01488021  0.70754751  0.39306939  1  -1.162859  0  -0.348698  -0.583762  0  2.168004  0
O  O168  1  0.23961090  0.32421863  0.34157757  1  -1.180274  0  -0.348685  -0.592901  0  2.159095  0
O  O169  1  0.89777303  0.17559594  0.65851555  1  -1.176868  0  -0.348478  -0.592532  0  2.159459  0
O  O170  1  0.76039307  0.67578153  0.65842628  1  -1.180185  0  -0.348704  -0.592936  0  2.159051  0
O  O171  1  0.10224023  0.82441006  0.34147958  1  -1.177093  0  -0.348456  -0.592497  0  2.159412  0
O  O172  1  0.12441376  0.18498256  0.45807643  1  -1.165512  0  -0.323558  -0.550557  0  2.133837  0
O  O173  1  0.66603158  0.31510625  0.54234695  1  -1.165045  0  -0.323457  -0.549951  0  2.133971  0
O  O174  1  0.87558005  0.81501905  0.54192093  1  -1.165493  0  -0.32352  -0.550491  0  2.133887  0
O  O175  1  0.33397945  0.68489023  0.45765482  1  -1.16497  0  -0.323384  -0.549857  0  2.134067  0
O  O176  1  0.09086218  0.02662171  0.46854070  1  -1.184623  0  -0.347149  -0.595041  0  2.372874  0
O  O177  1  0.62254606  0.47355880  0.53141638  1  -1.188577  0  -0.347344  -0.595334  0  2.371787  0
O  O178  1  0.90913800  0.97337255  0.53145294  1  -1.185003  0  -0.347185  -0.594979  0  2.372814  0
O  O179  1  0.37745134  0.52643548  0.46858805  1  -1.188589  0  -0.347359  -0.595369  0  2.3719  0
