# generated using pymatgen
data_Cu2H8C7(IN2)2
_symmetry_space_group_name_H-M   'P 1'
_cell_length_a   16.80496466
_cell_length_b   19.36055261
_cell_length_c   19.36052224
_cell_angle_alpha   111.98333325
_cell_angle_beta   106.81782936
_cell_angle_gamma   106.81810397
_symmetry_Int_Tables_number   1
_chemical_formula_structural   Cu2H8C7(IN2)2
_chemical_formula_sum   'Cu24 H96 C84 I24 N48'
_cell_volume   4998.78162888
_cell_formula_units_Z   12
loop_
 _symmetry_equiv_pos_site_id
 _symmetry_equiv_pos_as_xyz
  1  'x, y, z'
loop_
 _atom_site_type_symbol
 _atom_site_label
 _atom_site_symmetry_multiplicity
 _atom_site_fract_x
 _atom_site_fract_y
 _atom_site_fract_z
 _atom_site_occupancy
 _atom_site_pbe_bader_charge
 _atom_site_pbe_bader_spin_density
 _atom_site_pbe_cm5_charge
 _atom_site_pbe_ddec_charge
 _atom_site_pbe_ddec_spin_density
 _atom_site_pbe_ddec_sum_bond_order
 _atom_site_pbe_magmom
Cu  Cu0  1  0.42374839  0.47132711  0.87231859  1  0.38916  0  0.23038  0.141719  0  2.726081  0
Cu  Cu1  1  0.95248763  0.40122063  0.52864325  1  0.389908  0  0.230483  0.142266  0  2.726164  0
Cu  Cu2  1  0.55119784  0.12731407  0.59861452  1  0.387651  0  0.230624  0.141662  0  2.729133  0
Cu  Cu3  1  0.05119389  0.59862084  0.12731694  1  0.387688  0  0.230604  0.141656  0  2.729133  0
Cu  Cu4  1  0.92374757  0.87231946  0.47132201  1  0.389265  0  0.230406  0.141815  0  2.725843  0
Cu  Cu5  1  0.45249351  0.52864571  0.40122602  1  0.389967  0  0.230462  0.142195  0  2.726161  0
Cu  Cu6  1  0.26801713  0.40143674  0.87179800  1  0.387626  0  0.230492  0.142618  0  2.725214  0
Cu  Cu7  1  0.86672774  0.47053116  0.59867920  1  0.388995  0  0.230799  0.142313  0  2.727411  0
Cu  Cu8  1  0.39610555  0.12797572  0.52949363  1  0.387154  0  0.230458  0.142542  0  2.727558  0
Cu  Cu9  1  0.89610431  0.52948960  0.12797820  1  0.387129  0  0.230508  0.142554  0  2.727549  0
Cu  Cu10  1  0.76801432  0.87179799  0.40143561  1  0.387662  0  0.230403  0.142521  0  2.725135  0
Cu  Cu11  1  0.36672327  0.59867903  0.47053048  1  0.389082  0  0.23079  0.142316  0  2.727345  0
Cu  Cu12  1  0.42197642  0.43353209  0.98392119  1  0.379133  0  0.233684  0.146793  0  2.823716  0
Cu  Cu13  1  0.98801008  0.55043203  0.56624394  1  0.376326  0  0.233882  0.146368  0  2.824883  0
Cu  Cu14  1  0.43746247  0.01566571  0.44951679  1  0.375757  0  0.233422  0.14647  0  2.824609  0
Cu  Cu15  1  0.93746943  0.44951561  0.01566748  1  0.375936  0  0.233447  0.146526  0  2.824531  0
Cu  Cu16  1  0.92197068  0.98392024  0.43352691  1  0.379067  0  0.233671  0.146784  0  2.823768  0
Cu  Cu17  1  0.48800900  0.56624564  0.55042948  1  0.376333  0  0.233824  0.14634  0  2.824898  0
Cu  Cu18  1  0.38242276  0.54997146  0.98546332  1  0.374956  0  0.233746  0.147034  0  2.825038  0
Cu  Cu19  1  0.83189916  0.43555173  0.45007177  1  0.37545  0  0.234212  0.147194  0  2.823932  0
Cu  Cu20  1  0.39650122  0.01438699  0.56453181  1  0.378152  0  0.233982  0.147584  0  2.821955  0
Cu  Cu21  1  0.89650017  0.56452715  0.01437937  1  0.37824  0  0.233993  0.147557  0  2.821858  0
Cu  Cu22  1  0.88241779  0.98546694  0.54996840  1  0.375002  0  0.233732  0.147046  0  2.825099  0
Cu  Cu23  1  0.33190425  0.45007430  0.43555665  1  0.375376  0  0.234203  0.147145  0  2.824039  0
H  H24  1  0.44730795  0.53258909  0.74397320  1  0.129278  0  0.095161  0.096221  0  1.061505  0
H  H25  1  0.91486159  0.21177058  0.46759974  1  0.130435  0  0.095132  0.095559  0  1.061225  0
H  H26  1  0.70262514  0.25567152  0.78795712  1  0.096192  0  0.094893  0.095744  0  1.061913  0
H  H27  1  0.20263745  0.78796597  0.25567395  1  0.096074  0  0.094921  0.095785  0  1.061883  0
H  H28  1  0.94731113  0.74397996  0.53257973  1  0.125996  0  0.095124  0.096148  0  1.061549  0
H  H29  1  0.41486335  0.46760569  0.21177464  1  0.130635  0  0.095142  0.095599  0  1.061244  0
H  H30  1  0.54199789  0.37702961  0.81154452  1  0.140705  0  0.121547  0.099387  0  1.025691  0
H  H31  1  0.16523843  0.43477450  0.62300628  1  0.147169  0  0.121661  0.099759  0  1.025612  0
H  H32  1  0.73051906  0.18847149  0.56519219  1  0.13097  0  0.121775  0.099866  0  1.024765  0
H  H33  1  0.23050048  0.56519094  0.18847608  1  0.130966  0  0.121787  0.099748  0  1.024826  0
H  H34  1  0.04199627  0.81153902  0.37701402  1  0.140635  0  0.121503  0.099299  0  1.025689  0
H  H35  1  0.66524139  0.62300564  0.43477308  1  0.147164  0  0.121643  0.099759  0  1.025616  0
H  H36  1  0.49451876  0.35781179  0.26127922  1  0.124163  0  0.120637  0.124601  0  1.014329  0
H  H37  1  0.13652757  0.90319518  0.64194477  1  0.132577  0  0.12051  0.124773  0  1.013848  0
H  H38  1  0.23394451  0.73867483  0.09674884  1  0.12372  0  0.120209  0.124365  0  1.014053  0
H  H39  1  0.73394581  0.09675222  0.73867716  1  0.123733  0  0.120177  0.124314  0  1.014108  0
H  H40  1  0.99452093  0.26128400  0.35781208  1  0.124122  0  0.120682  0.124667  0  1.014306  0
H  H41  1  0.63653313  0.64195100  0.90320889  1  0.132246  0  0.120523  0.124747  0  1.013886  0
H  H42  1  0.68411029  0.36433392  0.11040149  1  0.122795  0  0.121266  0.125202  0  1.014818  0
H  H43  1  0.31946414  0.74574812  0.63568599  1  0.121711  0  0.121341  0.124769  0  1.013873  0
H  H44  1  0.57399611  0.88978537  0.25450187  1  0.13326  0  0.121226  0.124843  0  1.013692  0
H  H45  1  0.07400194  0.25449711  0.88978657  1  0.133374  0  0.121273  0.124892  0  1.013504  0
H  H46  1  0.18411288  0.11040388  0.36433603  1  0.122753  0  0.121266  0.12523  0  1.014773  0
H  H47  1  0.81946474  0.63567556  0.74575252  1  0.121644  0  0.121358  0.124729  0  1.013838  0
H  H48  1  0.52633762  0.46890935  0.64307007  1  0.166665  0  0.110442  0.116977  0  1.05768  0
H  H49  1  0.05744555  0.17442886  0.53116630  1  0.137154  0  0.11135  0.118222  0  1.056787  0
H  H50  1  0.88253566  0.35687866  0.82559017  1  0.143445  0  0.110805  0.117314  0  1.057453  0
H  H51  1  0.38254247  0.82558776  0.35687988  1  0.143364  0  0.11081  0.11736  0  1.057398  0
H  H52  1  0.02633368  0.64306450  0.46889387  1  0.166438  0  0.110494  0.117108  0  1.05763  0
H  H53  1  0.55744825  0.53116544  0.17442900  1  0.137094  0  0.111371  0.118264  0  1.05678  0
H  H54  1  0.76355394  0.46178285  0.82474130  1  0.139  0  0.110121  0.11732  0  1.055058  0
H  H55  1  0.30217912  0.36310024  0.53824145  1  0.15014  0  0.11028  0.117509  0  1.055577  0
H  H56  1  0.93871903  0.17544745  0.63695950  1  0.137275  0  0.11038  0.117674  0  1.055052  0
H  H57  1  0.43870078  0.63694176  0.17543729  1  0.137013  0  0.110339  0.117661  0  1.054983  0
H  H58  1  0.26353875  0.82473382  0.46177526  1  0.138697  0  0.110115  0.117266  0  1.055011  0
H  H59  1  0.80217740  0.53823398  0.36309478  1  0.149649  0  0.110308  0.117497  0  1.055654  0
H  H60  1  0.54501549  0.32137938  0.61309825  1  0.11629  0  0.115793  0.093505  0  1.017987  0
H  H61  1  0.22380022  0.29206643  0.67870560  1  0.109411  0  0.116109  0.093943  0  1.018068  0
H  H62  1  0.93166922  0.38701280  0.70833305  1  0.150287  0  0.116321  0.094525  0  1.018142  0
H  H63  1  0.43166041  0.70832062  0.38701030  1  0.150205  0  0.116311  0.094506  0  1.018185  0
H  H64  1  0.04500428  0.61308220  0.32137273  1  0.116051  0  0.11578  0.093582  0  1.017874  0
H  H65  1  0.72379898  0.67870272  0.29206422  1  0.109637  0  0.116079  0.093967  0  1.018003  0
H  H66  1  0.59286198  0.31967612  0.70667267  1  0.149656  0  0.115885  0.09523  0  1.014971  0
H  H67  1  0.27332461  0.38721572  0.68020122  1  0.149357  0  0.115955  0.095026  0  1.015403  0
H  H68  1  0.88611417  0.29354221  0.61305574  1  0.097387  0  0.115957  0.095414  0  1.01537  0
H  H69  1  0.38609730  0.61304431  0.29352945  1  0.097616  0  0.115906  0.095319  0  1.015501  0
H  H70  1  0.09285477  0.70665852  0.31965830  1  0.149583  0  0.115861  0.095219  0  1.014957  0
H  H71  1  0.77332703  0.68019746  0.38721628  1  0.149267  0  0.11594  0.095016  0  1.015413  0
H  H72  1  0.47060581  0.23371696  0.12054031  1  0.079681  0  0.139309  0.103013  0  0.936392  0
H  H73  1  0.23690911  0.88666157  0.76625430  1  0.086204  0  0.139132  0.102529  0  0.93665  0
H  H74  1  0.35055815  0.87949787  0.11343781  1  0.088724  0  0.139572  0.103296  0  0.937531  0
H  H75  1  0.85056070  0.11343590  0.87949746  1  0.088805  0  0.139554  0.103255  0  0.937644  0
H  H76  1  0.97060268  0.12054014  0.23371694  1  0.079963  0  0.139277  0.102976  0  0.936369  0
H  H77  1  0.73691020  0.76625252  0.88666265  1  0.08616  0  0.139146  0.102552  0  0.936674  0
H  H78  1  0.57441062  0.23140713  0.11522631  1  0.096727  0  0.138169  0.101161  0  0.937788  0
H  H79  1  0.34280939  0.88346399  0.76846598  1  0.097355  0  0.138252  0.101194  0  0.937641  0
H  H80  1  0.45985778  0.88516806  0.11680287  1  0.103803  0  0.13821  0.101613  0  0.93783  0
H  H81  1  0.95985672  0.11680064  0.88516584  1  0.10382  0  0.138196  0.10162  0  0.937836  0
H  H82  1  0.07440999  0.11522792  0.23140841  1  0.096791  0  0.138158  0.101098  0  0.937827  0
H  H83  1  0.84281162  0.76846463  0.88346969  1  0.097381  0  0.13825  0.101219  0  0.93757  0
H  H84  1  0.72830410  0.32089956  0.24725247  1  0.130912  0  0.132833  0.097573  0  0.997846  0
H  H85  1  0.40743846  0.92629324  0.67928010  1  0.150379  0  0.132736  0.097411  0  0.997441  0
H  H86  1  0.48188682  0.75311115  0.07396492  1  0.123202  0  0.132899  0.098105  0  0.997151  0
H  H87  1  0.98188738  0.07396624  0.75310863  1  0.123127  0  0.132938  0.098137  0  0.997217  0
H  H88  1  0.22830455  0.24725452  0.32090316  1  0.131001  0  0.132847  0.097591  0  0.997902  0
H  H89  1  0.90743835  0.67927177  0.92629090  1  0.150402  0  0.132779  0.097479  0  0.997401  0
H  H90  1  0.40561291  0.31586629  0.06793258  1  0.123767  0  0.132923  0.098165  0  0.997271  0
H  H91  1  0.08932191  0.75200269  0.68382597  1  0.127965  0  0.132861  0.097589  0  0.99659  0
H  H92  1  0.33757645  0.93172578  0.24800408  1  0.133633  0  0.133256  0.098018  0  0.99733  0
H  H93  1  0.83757625  0.24800425  0.93172036  1  0.133688  0  0.133284  0.098078  0  0.997365  0
H  H94  1  0.90561659  0.06794133  0.31586993  1  0.124272  0  0.132893  0.098164  0  0.997354  0
H  H95  1  0.58932200  0.68382624  0.75200361  1  0.127971  0  0.132879  0.097566  0  0.996602  0
H  H96  1  0.62699755  0.45194991  0.03877726  1  0.147344  0  0.101327  0.106755  0  1.047447  0
H  H97  1  0.17464268  0.58663489  0.54794761  1  0.130875  0  0.100984  0.106192  0  1.047514  0
H  H98  1  0.58799160  0.96104188  0.41355873  1  0.147984  0  0.101306  0.106259  0  1.048102  0
H  H99  1  0.08799357  0.41355298  0.96104101  1  0.147942  0  0.10131  0.106204  0  1.048153  0
H  H100  1  0.12699615  0.03877983  0.45195023  1  0.147399  0  0.101289  0.106712  0  1.047605  0
H  H101  1  0.67464626  0.54794693  0.58664318  1  0.130982  0  0.100991  0.106212  0  1.047599  0
H  H102  1  0.90635328  0.52493076  0.78736194  1  0.097888  0  0.093428  0.094947  0  1.067057  0
H  H103  1  0.38167690  0.26234830  0.47522404  1  0.105597  0  0.093222  0.094557  0  1.066191  0
H  H104  1  0.11888846  0.21284841  0.73728324  1  0.100999  0  0.093762  0.095636  0  1.066995  0
H  H105  1  0.61886900  0.73727291  0.21283616  1  0.101121  0  0.093758  0.095567  0  1.067067  0
H  H106  1  0.40634642  0.78736691  0.52493454  1  0.097814  0  0.093423  0.095  0  1.06695  0
H  H107  1  0.88167645  0.47521653  0.26234502  1  0.105214  0  0.093141  0.094456  0  1.06618  0
H  H108  1  0.65354408  0.37922536  0.56602968  1  0.144694  0  0.122317  0.100783  0  1.022945  0
H  H109  1  0.27411036  0.18683519  0.62074302  1  0.158217  0  0.121893  0.099984  0  1.022919  0
H  H110  1  0.08729797  0.43413938  0.81325637  1  0.177805  0  0.121868  0.100054  0  1.023761  0
H  H111  1  0.58729109  0.81324996  0.43413242  1  0.17724  0  0.1219  0.100082  0  1.023804  0
H  H112  1  0.15354173  0.56602680  0.37922250  1  0.144613  0  0.1223  0.100744  0  1.022952  0
H  H113  1  0.77411758  0.62074802  0.18684506  1  0.15849  0  0.121888  0.099913  0  1.022875  0
H  H114  1  0.64393949  0.44945391  0.41820410  1  0.126219  0  0.100338  0.106039  0  1.048394  0
H  H115  1  0.19462729  0.96858339  0.55044786  1  0.122437  0  0.100516  0.105696  0  1.049351  0
H  H116  1  0.22660907  0.58179048  0.03125487  1  0.144697  0  0.100747  0.105994  0  1.048446  0
H  H117  1  0.72660958  0.03126496  0.58179443  1  0.14483  0  0.100711  0.105991  0  1.048481  0
H  H118  1  0.14394213  0.41820908  0.44945730  1  0.126119  0  0.100353  0.106006  0  1.048484  0
H  H119  1  0.69463269  0.55044885  0.96858987  1  0.122312  0  0.100535  0.105677  0  1.049376  0
C  C120  1  0.48107838  0.49264016  0.74462697  1  0.361651  0  -0.019134  -0.055355  0  4.007526  0
C  C121  1  0.98858650  0.25234418  0.50748765  1  0.384778  0  -0.018414  -0.05358  0  4.004767  0
C  C122  1  0.73591041  0.25505607  0.74748486  1  0.364583  0  -0.01805  -0.053959  0  4.005955  0
C  C123  1  0.23591231  0.74748817  0.25505827  1  0.364785  0  -0.018119  -0.054036  0  4.006186  0
C  C124  1  0.98108067  0.74462802  0.49262690  1  0.364006  0  -0.018907  -0.054879  0  4.007201  0
C  C125  1  0.48858859  0.50749015  0.25234580  1  0.384542  0  -0.018456  -0.053745  0  4.004953  0
C  C126  1  0.52834258  0.41299850  0.78209542  1  0.969486  0  0.134568  0.096808  0  3.888663  0
C  C127  1  0.11552816  0.36939128  0.58708240  1  0.987933  0  0.134656  0.095716  0  3.887976  0
C  C128  1  0.74602365  0.21790725  0.63053839  1  0.995259  0  0.134263  0.09532  0  3.886583  0
C  C129  1  0.24601666  0.63053989  0.21791715  1  0.994863  0  0.134185  0.095423  0  3.88667  0
C  C130  1  0.02834458  0.78209129  0.41298475  1  0.970062  0  0.134588  0.097042  0  3.888824  0
C  C131  1  0.61552719  0.58708349  0.36939113  1  0.988357  0  0.13467  0.095662  0  3.887988  0
C  C132  1  0.56448865  0.36365048  0.28167165  1  0.33033  0  -0.003735  -0.101151  0  3.91968  0
C  C133  1  0.20075927  0.91781635  0.63623551  1  0.267782  0  -0.003802  -0.102775  0  3.920175  0
C  C134  1  0.28357500  0.71836041  0.08218922  1  0.2397  0  -0.003607  -0.102043  0  3.919696  0
C  C135  1  0.78357383  0.08218645  0.71836134  1  0.239739  0  -0.003528  -0.101944  0  3.91976  0
C  C136  1  0.06449143  0.28167594  0.36365341  1  0.330322  0  -0.003825  -0.101253  0  3.919809  0
C  C137  1  0.70076032  0.63623567  0.91782204  1  0.268449  0  -0.003742  -0.102692  0  3.920161  0
C  C138  1  0.61842002  0.36710507  0.09076914  1  0.271415  0  -0.004077  -0.104033  0  3.919705  0
C  C139  1  0.25096357  0.72337933  0.63283798  1  0.276585  0  -0.003468  -0.101328  0  3.91834  0
C  C140  1  0.52788668  0.90942198  0.27680982  1  0.222299  0  -0.004428  -0.103407  0  3.917536  0
C  C141  1  0.02788969  0.27680492  0.90941902  1  0.222541  0  -0.004412  -0.103401  0  3.917311  0
C  C142  1  0.11842165  0.09077361  0.36710633  1  0.27129  0  -0.004119  -0.10413  0  3.919753  0
C  C143  1  0.75096701  0.63283635  0.72338802  1  0.276504  0  -0.003332  -0.101082  0  3.918044  0
C  C144  1  0.51992978  0.46188532  0.69444858  1  0.259796  0  -0.005241  -0.095976  0  3.922427  0
C  C145  1  0.05813574  0.23286296  0.53822851  1  0.283494  0  -0.007032  -0.098595  0  3.922871  0
C  C146  1  0.82493005  0.30544090  0.76711777  1  0.30436  0  -0.006491  -0.09795  0  3.923052  0
C  C147  1  0.32493085  0.76711715  0.30543871  1  0.304101  0  -0.006456  -0.098143  0  3.923098  0
C  C148  1  0.01992926  0.69444419  0.46187383  1  0.261691  0  -0.005367  -0.096323  0  3.922341  0
C  C149  1  0.55813762  0.53823053  0.23286303  1  0.283687  0  -0.007026  -0.098559  0  3.922807  0
C  C150  1  0.76262336  0.45642052  0.76670893  1  0.257417  0  -0.00456  -0.094548  0  3.917469  0
C  C151  1  0.30648265  0.31040417  0.54364011  1  0.252713  0  -0.004527  -0.094474  0  3.918424  0
C  C152  1  0.99579213  0.23348309  0.68963291  1  0.363507  0  -0.004702  -0.094139  0  3.919968  0
C  C153  1  0.49577671  0.68961694  0.23347282  1  0.363777  0  -0.004827  -0.094449  0  3.919985  0
C  C154  1  0.26261259  0.76670459  0.45641694  1  0.257707  0  -0.004534  -0.094268  0  3.917078  0
C  C155  1  0.80648447  0.54363569  0.31040218  1  0.25322  0  -0.004438  -0.094289  0  3.918516  0
C  C156  1  0.58994871  0.36081230  0.68045756  1  0.616019  0  0.057208  0.021427  0  3.837027  0
C  C157  1  0.22927108  0.31987271  0.63917544  1  0.634391  0  0.056649  0.020829  0  3.839535  0
C  C158  1  0.90927425  0.31967314  0.68036458  1  0.626841  0  0.05585  0.0189  0  3.840691  0
C  C159  1  0.40926596  0.68035356  0.31967007  1  0.626863  0  0.055926  0.018908  0  3.840753  0
C  C160  1  0.08994098  0.68044400  0.36079776  1  0.616205  0  0.057263  0.021368  0  3.837204  0
C  C161  1  0.72927365  0.63917326  0.31987259  1  0.634321  0  0.056716  0.020832  0  3.83937  0
C  C162  1  0.54314648  0.27216316  0.13785159  1  0.71958  0  0.072711  0.02502  0  3.911502  0
C  C163  1  0.27084296  0.86542428  0.72770449  1  0.69306  0  0.072863  0.026339  0  3.91101  0
C  C164  1  0.40583352  0.86228125  0.13468867  1  0.698166  0  0.07313  0.024908  0  3.912689  0
C  C165  1  0.90583412  0.13468590  0.86227839  1  0.698236  0  0.073146  0.024884  0  3.91293  0
C  C166  1  0.04314636  0.13785569  0.27216440  1  0.718995  0  0.072802  0.025213  0  3.911309  0
C  C167  1  0.77084342  0.72770198  0.86542756  1  0.693139  0  0.072866  0.02621  0  3.911157  0
C  C168  1  0.68596986  0.34356080  0.27337969  1  0.967802  0  0.133762  0.078146  0  3.920915  0
C  C169  1  0.34235922  0.92957988  0.65640861  1  0.954134  0  0.134575  0.078956  0  3.919755  0
C  C170  1  0.41343476  0.72686143  0.07048865  1  0.988776  0  0.134404  0.077652  0  3.918851  0
C  C171  1  0.91343670  0.07049366  0.72685885  1  0.988513  0  0.134272  0.077545  0  3.918857  0
C  C172  1  0.18597011  0.27338327  0.34355967  1  0.967569  0  0.133761  0.07813  0  3.921007  0
C  C173  1  0.84235657  0.65640347  0.92957710  1  0.9544  0  0.134518  0.078868  0  3.91972  0
C  C174  1  0.47285017  0.34108941  0.06888410  1  0.985798  0  0.134869  0.078178  0  3.919754  0
C  C175  1  0.13136398  0.72769404  0.65868867  1  0.97385  0  0.135544  0.081168  0  3.917061  0
C  C176  1  0.40392016  0.93089759  0.27236555  1  0.963834  0  0.134842  0.079563  0  3.91799  0
C  C177  1  0.90392138  0.27236271  0.93089384  1  0.964108  0  0.134768  0.079465  0  3.918097  0
C  C178  1  0.97285208  0.06888939  0.34109504  1  0.985601  0  0.134874  0.078167  0  3.920121  0
C  C179  1  0.63136554  0.65868951  0.72769557  1  0.973915  0  0.135571  0.081212  0  3.917011  0
C  C180  1  0.58953176  0.41061270  0.05583503  1  0.429862  0  -0.005537  -0.019449  0  3.968386  0
C  C181  1  0.17846329  0.64500805  0.58925071  1  0.43909  0  -0.005428  -0.019342  0  3.969929  0
C  C182  1  0.53361037  0.94406871  0.35513298  1  0.471445  0  -0.005507  -0.01896  0  3.967648  0
C  C183  1  0.03361161  0.35512608  0.94406541  1  0.471974  0  -0.005569  -0.01889  0  3.967728  0
C  C184  1  0.08953160  0.05583824  0.41061311  1  0.430071  0  -0.005502  -0.019364  0  3.968594  0
C  C185  1  0.67846869  0.58925171  0.64501254  1  0.439187  0  -0.005575  -0.019633  0  3.970063  0
C  C186  1  0.83222352  0.48700452  0.74718752  1  0.445227  0  -0.019439  -0.055083  0  4.001823  0
C  C187  1  0.34542067  0.26020384  0.51312300  1  0.424739  0  -0.019885  -0.05483  0  4.00319  0
C  C188  1  0.08492051  0.25302765  0.73970205  1  0.335903  0  -0.019495  -0.056051  0  4.006192  0
C  C189  1  0.58490356  0.73968776  0.25301631  1  0.335384  0  -0.019336  -0.055796  0  4.006322  0
C  C190  1  0.33221824  0.74718944  0.48700450  1  0.444831  0  -0.019466  -0.055349  0  4.001937  0
C  C191  1  0.84541980  0.51311511  0.26019832  1  0.424994  0  -0.019856  -0.054809  0  4.003201  0
C  C192  1  0.70400863  0.41247776  0.63103073  1  0.979794  0  0.133896  0.092114  0  3.890629  0
C  C193  1  0.29147852  0.21861105  0.58754866  1  0.95501  0  0.134294  0.092967  0  3.888173  0
C  C194  1  0.07276901  0.36914136  0.78144623  1  0.954191  0  0.133796  0.09288  0  3.890257  0
C  C195  1  0.57275857  0.78143661  0.36913382  1  0.95463  0  0.13376  0.092778  0  3.890324  0
C  C196  1  0.20400661  0.63102826  0.41247593  1  0.979398  0  0.133952  0.092264  0  3.890389  0
C  C197  1  0.79148248  0.58754716  0.21861242  1  0.955185  0  0.134413  0.093191  0  3.887869  0
C  C198  1  0.63914994  0.40915668  0.35893223  1  0.390761  0  -0.005916  -0.017979  0  3.963747  0
C  C199  1  0.23004371  0.94960981  0.59079001  1  0.449456  0  -0.006706  -0.016863  0  3.965396  0
C  C200  1  0.28103183  0.64112814  0.05030067  1  0.46083  0  -0.006488  -0.018072  0  3.965128  0
C  C201  1  0.78102998  0.05030286  0.64112877  1  0.460579  0  -0.006475  -0.018186  0  3.965322  0
C  C202  1  0.13915303  0.35893618  0.40915997  1  0.390851  0  -0.005981  -0.018033  0  3.963872  0
C  C203  1  0.73004596  0.59079057  0.94961495  1  0.449501  0  -0.00681  -0.016887  0  3.965404  0
I  I204  1  0.30388054  0.52900702  0.82955008  1  -0.430497  0  -0.224849  -0.32863  0  1.830114  0
I  I205  1  0.77489212  0.30065846  0.47108570  1  -0.431712  0  -0.224808  -0.329059  0  1.830328  0
I  I206  1  0.47417106  0.17038582  0.69924346  1  -0.431074  0  -0.224687  -0.328698  0  1.830138  0
I  I207  1  0.97417278  0.69924924  0.17038389  1  -0.431113  0  -0.224695  -0.328711  0  1.830045  0
I  I208  1  0.80388418  0.82955186  0.52900381  1  -0.430477  0  -0.224858  -0.32863  0  1.830138  0
I  I209  1  0.27489125  0.47108191  0.30065735  1  -0.431699  0  -0.224821  -0.329068  0  1.830198  0
I  I210  1  0.34550612  0.30085546  0.82794598  1  -0.429333  0  -0.22336  -0.327716  0  1.83545  0
I  I211  1  0.04468795  0.52737750  0.69918522  1  -0.430183  0  -0.223632  -0.328176  0  1.834131  0
I  I212  1  0.51726475  0.17166351  0.47261138  1  -0.428984  0  -0.223439  -0.328021  0  1.834562  0
I  I213  1  0.01726238  0.47260679  0.17165699  1  -0.428994  0  -0.223451  -0.328062  0  1.83478  0
I  I214  1  0.84549352  0.82794306  0.30084707  1  -0.429373  0  -0.223373  -0.327732  0  1.835427  0
I  I215  1  0.54468595  0.69918891  0.52738435  1  -0.430188  0  -0.223628  -0.328149  0  1.834092  0
I  I216  1  0.29346441  0.44541992  0.03428735  1  -0.443623  0  -0.207097  -0.322396  0  1.823098  0
I  I217  1  0.84770579  0.58896920  0.55445456  1  -0.443803  0  -0.206844  -0.32223  0  1.823386  0
I  I218  1  0.25870137  0.96538208  0.41099849  1  -0.44541  0  -0.206825  -0.322269  0  1.822251  0
I  I219  1  0.75869606  0.41099588  0.96538097  1  -0.445495  0  -0.206824  -0.32227  0  1.822059  0
I  I220  1  0.79345998  0.03428520  0.44541589  1  -0.443603  0  -0.207077  -0.322327  0  1.823112  0
I  I221  1  0.34770646  0.55445749  0.58896805  1  -0.443761  0  -0.20682  -0.322234  0  1.823553  0
I  I222  1  0.56038482  0.58815343  0.03661412  1  -0.443071  0  -0.201915  -0.319505  0  1.845049  0
I  I223  1  0.97163644  0.44819533  0.41160792  1  -0.442505  0  -0.20192  -0.319599  0  1.844943  0
I  I224  1  0.52361904  0.96342271  0.55186964  1  -0.441202  0  -0.202184  -0.319508  0  1.843598  0
I  I225  1  0.02362219  0.55186395  0.96341927  1  -0.441292  0  -0.202133  -0.319463  0  1.843558  0
I  I226  1  0.06038129  0.03663063  0.58815386  1  -0.442967  0  -0.201967  -0.319587  0  1.845014  0
I  I227  1  0.47163940  0.41160872  0.44819759  1  -0.442539  0  -0.201904  -0.319559  0  1.84492  0
N  N228  1  0.48606478  0.46117677  0.79854950  1  -1.212419  0  -0.391477  -0.220138  0  3.662384  0
N  N229  1  0.02506585  0.33771612  0.53892880  1  -1.2337  0  -0.391605  -0.21979  0  3.659779  0
N  N230  1  0.68718452  0.20120517  0.66210119  1  -1.203732  0  -0.391947  -0.218902  0  3.660493  0
N  N231  1  0.18717990  0.66210442  0.20121199  1  -1.203462  0  -0.391849  -0.218883  0  3.66061  0
N  N232  1  0.98606503  0.79854701  0.46116118  1  -1.212295  0  -0.391611  -0.220471  0  3.662424  0
N  N233  1  0.52506743  0.53893127  0.33771740  1  -1.234161  0  -0.391552  -0.219618  0  3.659879  0
N  N234  1  0.79489782  0.45867551  0.66233292  1  -1.224424  0  -0.391653  -0.217277  0  3.660001  0
N  N235  1  0.33620385  0.20363027  0.54139932  1  -1.212085  0  -0.39129  -0.217761  0  3.658326  0
N  N236  1  0.13241865  0.33786293  0.79627538  1  -1.229953  0  -0.391506  -0.217985  0  3.659952  0
N  N237  1  0.63240178  0.79626641  0.33785229  1  -1.229338  0  -0.391428  -0.217986  0  3.660155  0
N  N238  1  0.29489583  0.66233472  0.45867648  1  -1.2244  0  -0.391671  -0.217268  0  3.659936  0
N  N239  1  0.83620357  0.54139305  0.20362711  1  -1.212596  0  -0.39139  -0.217841  0  3.658382  0
N  N240  1  0.49896173  0.39374378  0.04250243  1  -1.210653  0  -0.385544  -0.2043  0  3.677982  0
N  N241  1  0.10475309  0.64865274  0.60602892  1  -1.206305  0  -0.385918  -0.205495  0  3.682002  0
N  N242  1  0.45622542  0.95719827  0.35141119  1  -1.213772  0  -0.385542  -0.205456  0  3.679334  0
N  N243  1  0.95622927  0.35140818  0.95719725  1  -1.214333  0  -0.385562  -0.205515  0  3.679551  0
N  N244  1  0.99896301  0.04250570  0.39374696  1  -1.210784  0  -0.385506  -0.204351  0  3.678252  0
N  N245  1  0.60475813  0.60603369  0.64865542  1  -1.206255  0  -0.38585  -0.205461  0  3.681864  0
N  N246  1  0.54985409  0.41173669  0.71905774  1  -1.211719  0  -0.244311  0.020822  0  3.76005  0
N  N247  1  0.13823719  0.30758081  0.58833183  1  -1.239298  0  -0.244153  0.021847  0  3.762108  0
N  N248  1  0.83045864  0.28100252  0.69247228  1  -1.228203  0  -0.243818  0.022558  0  3.760725  0
N  N249  1  0.33045296  0.69246935  0.28100607  1  -1.227838  0  -0.24391  0.022688  0  3.760636  0
N  N250  1  0.04985460  0.71905296  0.41172313  1  -1.212803  0  -0.244276  0.020787  0  3.76001  0
N  N251  1  0.63823840  0.58833435  0.30758209  1  -1.239296  0  -0.244194  0.021817  0  3.762028  0
N  N252  1  0.54347003  0.32260238  0.09829302  1  -1.242586  0  -0.250009  0.00058  0  3.805288  0
N  N253  1  0.22054993  0.77546899  0.67725886  1  -1.240568  0  -0.250539  -0.002456  0  3.8065  0
N  N254  1  0.44540628  0.90175128  0.22464650  1  -1.244575  0  -0.250457  5.6e-05  0  3.80432  0
N  N255  1  0.94540646  0.22464263  0.90174702  1  -1.245298  0  -0.250382  8.3e-05  0  3.80417  0
N  N256  1  0.04347032  0.09829791  0.32260485  1  -1.242764  0  -0.249994  0.000598  0  3.805274  0
N  N257  1  0.72054948  0.67725637  0.77547320  1  -1.240627  0  -0.250627  -0.002374  0  3.806263  0
N  N258  1  0.71399988  0.39590942  0.35282847  1  -1.199926  0  -0.385119  -0.205354  0  3.678909  0
N  N259  1  0.31814531  0.95674048  0.60409179  1  -1.217142  0  -0.384886  -0.205708  0  3.677844  0
N  N260  1  0.36203179  0.64735558  0.04321342  1  -1.213443  0  -0.384675  -0.204592  0  3.677574  0
N  N261  1  0.86203148  0.04321917  0.64735368  1  -1.213042  0  -0.384652  -0.204541  0  3.677479  0
N  N262  1  0.21400167  0.35283206  0.39591008  1  -1.199698  0  -0.385092  -0.205246  0  3.67878  0
N  N263  1  0.81814513  0.60409110  0.95674310  1  -1.216989  0  -0.384876  -0.205674  0  3.677836  0
N  N264  1  0.68175607  0.40952848  0.69258757  1  -1.235805  0  -0.244057  0.021035  0  3.760749  0
N  N265  1  0.27231561  0.28318133  0.59046606  1  -1.232308  0  -0.244094  0.021281  0  3.761198  0
N  N266  1  0.98896861  0.30756186  0.71695148  1  -1.230451  0  -0.24344  0.021364  0  3.76054  0
N  N267  1  0.48895774  0.71693634  0.30755562  1  -1.230793  0  -0.243359  0.021748  0  3.759993  0
N  N268  1  0.18174859  0.69258091  0.40952146  1  -1.235146  0  -0.244049  0.020951  0  3.760611  0
N  N269  1  0.77231853  0.59046180  0.28318141  1  -1.232287  0  -0.244192  0.021131  0  3.761298  0
N  N270  1  0.59475865  0.32164865  0.22769054  1  -1.267017  0  -0.250338  -0.000231  0  3.804961  0
N  N271  1  0.27300069  0.90580628  0.67825521  1  -1.23141  0  -0.250506  -0.000148  0  3.805552  0
N  N272  1  0.36782163  0.77244920  0.09428328  1  -1.245229  0  -0.25056  5e-05  0  3.804454  0
N  N273  1  0.86782299  0.09428316  0.77244774  1  -1.245373  0  -0.25054  0.000137  0  3.804452  0
N  N274  1  0.09475862  0.22769515  0.32164935  1  -1.266851  0  -0.250295  -0.000225  0  3.805019  0
N  N275  1  0.77299945  0.67825022  0.90580555  1  -1.232265  0  -0.250532  -0.000163  0  3.805724  0
