# generated using pymatgen
data_AlH18C24(N3O2)3
_symmetry_space_group_name_H-M   'P 1'
_cell_length_a   3.88339710
_cell_length_b   15.81809092
_cell_length_c   16.04336022
_cell_angle_alpha   59.41087583
_cell_angle_beta   91.29074600
_cell_angle_gamma   87.52797939
_symmetry_Int_Tables_number   1
_chemical_formula_structural   AlH18C24(N3O2)3
_chemical_formula_sum   'Al1 H18 C24 N9 O6'
_cell_volume   846.44189270
_cell_formula_units_Z   1
loop_
 _symmetry_equiv_pos_site_id
 _symmetry_equiv_pos_as_xyz
  1  'x, y, z'
loop_
 _atom_site_type_symbol
 _atom_site_label
 _atom_site_symmetry_multiplicity
 _atom_site_fract_x
 _atom_site_fract_y
 _atom_site_fract_z
 _atom_site_occupancy
 _atom_site_pbe_bader_charge
 _atom_site_pbe_bader_spin_density
 _atom_site_pbe_cm5_charge
 _atom_site_pbe_ddec_charge
 _atom_site_pbe_ddec_spin_density
 _atom_site_pbe_ddec_sum_bond_order
 _atom_site_pbe_magmom
Al  Al0  1  0.96909631  0.50460725  0.49811907  1  2.499932  0  0.416804  1.579877  0  2.581751  0
H  H1  1  0.15710218  0.84818336  0.61130806  1  0.038925  0  0.100424  0.116877  0  1.017279  0
H  H2  1  0.72633697  0.60097148  0.84973330  1  0.055338  0  0.100318  0.116869  0  1.016575  0
H  H3  1  0.73202603  0.04131285  0.60811096  1  0.062247  0  0.099757  0.115678  0  1.019393  0
H  H4  1  0.28916808  0.04816099  0.84772225  1  0.082913  0  0.100874  0.116337  0  1.01904  0
H  H5  1  0.71615328  0.84550851  0.04532040  1  0.068543  0  0.101339  0.117592  0  1.019429  0
H  H6  1  0.23243676  0.60635183  0.04551412  1  0.082652  0  0.100156  0.116421  0  1.020283  0
H  H7  1  0.85679057  0.47054808  0.72302638  1  0.470579  0  0.298551  0.306833  0  0.985465  0
H  H8  1  0.95963069  0.47810401  0.82336112  1  0.443663  0  0.305547  0.304859  0  0.936383  0
H  H9  1  0.03191154  0.72669929  0.47613560  1  0.494368  0  0.299713  0.308291  0  0.981733  0
H  H10  1  0.91664741  0.82492448  0.48965188  1  0.439748  0  0.305905  0.305387  0  0.936497  0
H  H11  1  0.86243267  0.30078276  0.47447101  1  0.473717  0  0.299566  0.309312  0  0.978538  0
H  H12  1  0.94576055  0.18821197  0.48516315  1  0.439736  0  0.306965  0.305716  0  0.935165  0
H  H13  1  0.17574457  0.31117329  0.72457226  1  0.485265  0  0.299394  0.308608  0  0.982541  0
H  H14  1  0.10068608  0.20090651  0.82524276  1  0.421297  0  0.306172  0.3053  0  0.936288  0
H  H15  1  0.81227594  0.72652689  0.30433903  1  0.467899  0  0.300252  0.308634  0  0.983904  0
H  H16  1  0.91476078  0.82289581  0.19414730  1  0.438743  0  0.30606  0.305552  0  0.937061  0
H  H17  1  0.08974090  0.47873284  0.30050452  1  0.479743  0  0.2997  0.309115  0  0.980391  0
H  H18  1  0.00753869  0.48778376  0.19057103  1  0.44428  0  0.306605  0.30587  0  0.935177  0
C  C19  1  0.44948774  0.58133120  0.34565146  1  1.454996  0  0.25994  0.655626  0  4.038264  0
C  C20  1  0.45783990  0.57923181  0.57578552  1  1.470679  0  0.259049  0.655959  0  4.03426  0
C  C21  1  0.50202294  0.34981379  0.57538289  1  1.432599  0  0.262128  0.660291  0  4.035054  0
C  C22  1  0.49220560  0.92740864  0.78578506  1  1.114589  0  0.258999  0.386818  0  3.989382  0
C  C23  1  0.45791150  0.78337718  0.78757792  1  1.080012  0  0.259941  0.389753  0  3.984309  0
C  C24  1  0.47911687  0.78323165  0.92934277  1  1.033966  0  0.258918  0.387224  0  3.988075  0
C  C25  1  0.26629816  0.72434679  0.59161948  1  0.384134  0  0.106019  0.318846  0  4.077366  0
C  C26  1  0.28239108  0.77468207  0.64249699  1  0.08417  0  -0.118003  -0.280149  0  3.973987  0
C  C27  1  0.44443765  0.72943062  0.73480148  1  -0.00347  0  -0.003655  0.061611  0  4.054988  0
C  C28  1  0.60051096  0.63457032  0.77759187  1  -0.000157  0  -0.118444  -0.281114  0  3.973584  0
C  C29  1  0.61720395  0.58542804  0.72553286  1  0.408508  0  0.105316  0.317596  0  4.08012  0
C  C30  1  0.44577148  0.62942354  0.63119818  1  0.050935  0  -0.039463  -0.291207  0  3.860567  0
C  C31  1  0.63580067  0.08390624  0.63979680  1  0.064597  0  -0.11794  -0.279346  0  3.972227  0
C  C32  1  0.65477692  0.18650913  0.58949774  1  0.350044  0  0.107144  0.319526  0  4.080453  0
C  C33  1  0.51411718  0.24225344  0.63003981  1  0.102942  0  -0.039163  -0.289249  0  3.859967  0
C  C34  1  0.37748797  0.19083807  0.72446861  1  0.351566  0  0.105547  0.318751  0  4.082085  0
C  C35  1  0.38784018  0.08789930  0.77542099  1  0.051767  0  -0.117119  -0.275793  0  3.973452  0
C  C36  1  0.50681445  0.03560516  0.73214839  1  -0.012111  0  -0.004315  0.058485  0  4.05576  0
C  C37  1  0.60636840  0.77414036  0.08588631  1  0.064882  0  -0.117685  -0.278716  0  3.974114  0
C  C38  1  0.61125374  0.72509657  0.18729311  1  0.377472  0  0.10581  0.317881  0  4.078256  0
C  C39  1  0.45620950  0.63237270  0.24003637  1  0.02644  0  -0.039686  -0.29158  0  3.859867  0
C  C40  1  0.31237413  0.59047456  0.18693177  1  0.420145  0  0.10768  0.319793  0  4.077505  0
C  C41  1  0.33669400  0.63854371  0.08597302  1  -0.042223  0  -0.117808  -0.281467  0  3.973557  0
C  C42  1  0.47547279  0.73033533  0.03627475  1  0.034924  0  -0.005252  0.059333  0  4.052212  0
N  N43  1  0.47039991  0.88187625  0.73438539  1  -1.199883  0  -0.309019  -0.40867  0  3.186964  0
N  N44  1  0.46031519  0.73053320  0.88500803  1  -1.197105  0  -0.309125  -0.407976  0  3.189151  0
N  N45  1  0.49877312  0.88139090  0.88309074  1  -1.224041  0  -0.306083  -0.400628  0  3.20015  0
N  N46  1  0.78227358  0.49280084  0.76957180  1  -1.252435  0  -0.603685  -0.625976  0  3.301446  0
N  N47  1  0.09816288  0.77149291  0.50128329  1  -1.26289  0  -0.602809  -0.624832  0  3.304277  0
N  N48  1  0.78609705  0.23173020  0.49871931  1  -1.242458  0  -0.601369  -0.624244  0  3.307698  0
N  N49  1  0.25585284  0.23947044  0.76993207  1  -1.220061  0  -0.603134  -0.627753  0  3.303476  0
N  N50  1  0.74568516  0.77142469  0.23268030  1  -1.248739  0  -0.602765  -0.62407  0  3.303295  0
N  N51  1  0.16910886  0.50058641  0.23291119  1  -1.252205  0  -0.60145  -0.622159  0  3.306099  0
O  O52  1  0.26543902  0.39808703  0.59261246  1  -1.274474  0  -0.246138  -0.618652  0  2.424508  0
O  O53  1  0.22376268  0.51769139  0.39037657  1  -1.253846  0  -0.242548  -0.605998  0  2.391885  0
O  O54  1  0.21914555  0.60013150  0.50949697  1  -1.262845  0  -0.246741  -0.612031  0  2.406078  0
O  O55  1  0.72301948  0.39550327  0.51070369  1  -1.265551  0  -0.243949  -0.60758  0  2.385319  0
O  O56  1  0.70747935  0.51477431  0.59345908  1  -1.266509  0  -0.244295  -0.610055  0  2.40761  0
O  O57  1  0.67384965  0.60044192  0.39368118  1  -1.267952  0  -0.24895  -0.621376  0  2.423013  0
