# generated using pymatgen
data_Ti3H27C39NO12
_symmetry_space_group_name_H-M   'P 1'
_cell_length_a   11.94333039
_cell_length_b   25.00118073
_cell_length_c   25.00115460
_cell_angle_alpha   120.00003674
_cell_angle_beta   89.99997669
_cell_angle_gamma   90.00001859
_symmetry_Int_Tables_number   1
_chemical_formula_structural   Ti3H27C39NO12
_chemical_formula_sum   'Ti12 H108 C156 N4 O48'
_cell_volume   6465.11869712
_cell_formula_units_Z   4
loop_
 _symmetry_equiv_pos_site_id
 _symmetry_equiv_pos_as_xyz
  1  'x, y, z'
loop_
 _atom_site_type_symbol
 _atom_site_label
 _atom_site_symmetry_multiplicity
 _atom_site_fract_x
 _atom_site_fract_y
 _atom_site_fract_z
 _atom_site_occupancy
 _atom_site_pbe_bader_charge
 _atom_site_pbe_bader_spin_density
 _atom_site_pbe_cm5_charge
 _atom_site_pbe_ddec_charge
 _atom_site_pbe_ddec_spin_density
 _atom_site_pbe_ddec_sum_bond_order
 _atom_site_pbe_magmom
Ti  Ti0  1  0.60585610  0.00000082  0.08192986  1  2.242119  0  1.453148  2.178265  0  2.340275  0
Ti  Ti1  1  0.60585573  0.08192916  0.99999944  1  2.242067  0  1.453153  2.178215  0  2.340253  0
Ti  Ti2  1  0.60585606  0.91807093  0.91807150  1  2.239613  0  1.453148  2.178214  0  2.340329  0
Ti  Ti3  1  0.10585903  0.99999923  0.91806895  1  2.241937  0  1.453172  2.178196  0  2.340297  0
Ti  Ti4  1  0.10585605  0.91806973  0.00000053  1  2.241869  0  1.453172  2.178167  0  2.340237  0
Ti  Ti5  1  0.10585656  0.08193186  0.08193098  1  2.239499  0  1.453182  2.178194  0  2.34031  0
Ti  Ti6  1  0.89414420  0.00000083  0.08192984  1  2.241932  0  1.453152  2.178286  0  2.34023  0
Ti  Ti7  1  0.89414499  0.91807117  0.91807125  1  2.239578  0  1.453158  2.178213  0  2.34032  0
Ti  Ti8  1  0.89414216  0.08192877  0.99999902  1  2.241881  0  1.453177  2.178199  0  2.340317  0
Ti  Ti9  1  0.39414462  0.99999901  0.91806916  1  2.242094  0  1.453177  2.178247  0  2.340211  0
Ti  Ti10  1  0.39414299  0.08193204  0.08193159  1  2.239542  0  1.453216  2.178318  0  2.340152  0
Ti  Ti11  1  0.39414331  0.91806951  0.00000074  1  2.242032  0  1.453164  2.17816  0  2.340232  0
H  H12  1  0.65605924  0.84694860  0.23974299  1  0.051707  0  0.095338  0.089522  0  1.037937  0
H  H13  1  0.65606163  0.39279473  0.15305100  1  0.04072  0  0.095321  0.089519  0  1.037927  0
H  H14  1  0.65606073  0.76025619  0.60720451  1  0.038737  0  0.09532  0.089498  0  1.03795  0
H  H15  1  0.15606005  0.15305140  0.76025668  1  0.051702  0  0.095335  0.089521  0  1.03794  0
H  H16  1  0.15606101  0.60720526  0.84694867  1  0.040369  0  0.095326  0.089517  0  1.037926  0
H  H17  1  0.15606107  0.23974397  0.39279579  1  0.039305  0  0.095306  0.089471  0  1.037953  0
H  H18  1  0.84394120  0.15305207  0.39279416  1  0.040602  0  0.09533  0.08953  0  1.037892  0
H  H19  1  0.84394204  0.60720577  0.76025684  1  0.039933  0  0.09532  0.089525  0  1.037887  0
H  H20  1  0.84394104  0.23974270  0.84694935  1  0.050763  0  0.09533  0.089529  0  1.037863  0
H  H21  1  0.34394011  0.84694834  0.60720588  1  0.032336  0  0.095302  0.089466  0  1.037853  0
H  H22  1  0.34394179  0.39279360  0.23974263  1  0.038662  0  0.095306  0.089476  0  1.037891  0
H  H23  1  0.34394111  0.76025668  0.15305012  1  0.045526  0  0.095326  0.089505  0  1.037878  0
H  H24  1  0.34393897  0.15305140  0.76025667  1  0.044553  0  0.095325  0.089527  0  1.037948  0
H  H25  1  0.34393909  0.60720527  0.84694866  1  0.033502  0  0.095326  0.089523  0  1.037926  0
H  H26  1  0.34393916  0.23974398  0.39279577  1  0.045857  0  0.095312  0.089486  0  1.037943  0
H  H27  1  0.84393983  0.84694860  0.23974298  1  0.044512  0  0.095342  0.089533  0  1.037935  0
H  H28  1  0.84393804  0.39279428  0.15305145  1  0.033326  0  0.095324  0.089515  0  1.037941  0
H  H29  1  0.84393965  0.76025620  0.60720450  1  0.046463  0  0.09533  0.089504  0  1.037933  0
H  H30  1  0.15605952  0.84694833  0.60720590  1  0.0406  0  0.095315  0.089486  0  1.037871  0
H  H31  1  0.15605784  0.39279359  0.23974265  1  0.046934  0  0.095324  0.089524  0  1.03787  0
H  H32  1  0.15605884  0.76025690  0.15304991  1  0.051745  0  0.095311  0.08947  0  1.037891  0
H  H33  1  0.65605893  0.15305206  0.39279417  1  0.03242  0  0.095338  0.089544  0  1.037874  0
H  H34  1  0.65605726  0.60720577  0.76025686  1  0.045923  0  0.095311  0.089479  0  1.037916  0
H  H35  1  0.65605877  0.23974315  0.84694890  1  0.04649  0  0.095316  0.089488  0  1.037874  0
H  H36  1  0.65260547  0.90606869  0.18428660  1  0.091078  0  0.108375  0.113068  0  1.003349  0
H  H37  1  0.65260697  0.27821837  0.09393224  1  0.09253  0  0.108411  0.113101  0  1.003401  0
H  H38  1  0.65260772  0.81571303  0.72178069  1  0.090425  0  0.108395  0.113101  0  1.003311  0
H  H39  1  0.15260536  0.09393210  0.81571387  1  0.084759  0  0.108416  0.113116  0  1.003393  0
H  H40  1  0.15260553  0.72178163  0.90606743  1  0.098207  0  0.108445  0.113162  0  1.003526  0
H  H41  1  0.15260813  0.18428650  0.27821944  1  0.083839  0  0.10845  0.113149  0  1.003441  0
H  H42  1  0.84739672  0.09393417  0.27821761  1  0.093166  0  0.108401  0.113088  0  1.003409  0
H  H43  1  0.84739503  0.72178234  0.81571557  1  0.083191  0  0.108389  0.113062  0  1.003403  0
H  H44  1  0.84739648  0.18428426  0.90606694  1  0.090656  0  0.108413  0.113118  0  1.003436  0
H  H45  1  0.34739640  0.90606561  0.72178226  1  0.098464  0  0.108395  0.11307  0  1.003462  0
H  H46  1  0.34739642  0.27821727  0.18428367  1  0.089507  0  0.108387  0.113063  0  1.003409  0
H  H47  1  0.34739580  0.81571591  0.09393334  1  0.089332  0  0.108448  0.113165  0  1.003469  0
H  H48  1  0.34739441  0.09393171  0.81571345  1  0.091039  0  0.108439  0.113158  0  1.0034  0
H  H49  1  0.34739375  0.72178123  0.90606702  1  0.092511  0  0.108435  0.113157  0  1.003497  0
H  H50  1  0.34739216  0.18428651  0.27821943  1  0.090388  0  0.108452  0.113152  0  1.00344  0
H  H51  1  0.84739369  0.90606870  0.18428659  1  0.084779  0  0.108367  0.113062  0  1.00335  0
H  H52  1  0.84739351  0.27821797  0.09393182  1  0.098222  0  0.108403  0.113096  0  1.003405  0
H  H53  1  0.84739175  0.81571343  0.72178108  1  0.083872  0  0.108388  0.113094  0  1.003323  0
H  H54  1  0.15260400  0.90606560  0.72178227  1  0.09252  0  0.108414  0.113099  0  1.003458  0
H  H55  1  0.15260402  0.27821726  0.18428369  1  0.083167  0  0.108386  0.113063  0  1.003406  0
H  H56  1  0.15260424  0.81571614  0.09393312  1  0.084714  0  0.108449  0.113169  0  1.00347  0
H  H57  1  0.65260348  0.09393393  0.27821786  1  0.097893  0  0.108401  0.113087  0  1.0034  0
H  H58  1  0.65260430  0.72178233  0.81571558  1  0.089535  0  0.108394  0.113062  0  1.003399  0
H  H59  1  0.65260491  0.18428369  0.90606592  1  0.08349  0  0.108401  0.113073  0  1.003434  0
H  H60  1  0.60712641  0.77281223  0.36587637  1  0.096058  0  0.105541  0.115603  0  0.997703  0
H  H61  1  0.60712641  0.59306404  0.22718730  1  0.06851  0  0.105547  0.115609  0  0.997668  0
H  H62  1  0.60712802  0.63412255  0.40693554  1  0.07911  0  0.105527  0.11557  0  0.997685  0
H  H63  1  0.10712654  0.22718776  0.63412331  1  0.093449  0  0.105551  0.115626  0  0.997643  0
H  H64  1  0.10712654  0.40693572  0.77281261  1  0.07013  0  0.105544  0.115616  0  0.997665  0
H  H65  1  0.10712661  0.36587738  0.59306500  1  0.0808  0  0.105527  0.115581  0  0.997683  0
H  H66  1  0.89287557  0.22719040  0.59306569  1  0.068533  0  0.105561  0.115678  0  0.997596  0
H  H67  1  0.89287645  0.40693457  0.63412398  1  0.079471  0  0.105541  0.115627  0  0.997642  0
H  H68  1  0.89287637  0.36587580  0.77281044  1  0.093492  0  0.105541  0.115644  0  0.997579  0
H  H69  1  0.39287543  0.77280938  0.40693417  1  0.072977  0  0.105555  0.115666  0  0.997573  0
H  H70  1  0.39287706  0.59306481  0.36587548  1  0.079146  0  0.105537  0.115621  0  0.997665  0
H  H71  1  0.39287630  0.63412398  0.22718943  1  0.093481  0  0.105547  0.115637  0  0.997673  0
H  H72  1  0.39287347  0.22718777  0.63412329  1  0.094412  0  0.105548  0.115622  0  0.997648  0
H  H73  1  0.39287347  0.40693533  0.77281219  1  0.068494  0  0.105531  0.115589  0  0.99768  0
H  H74  1  0.39287270  0.36587739  0.59306498  1  0.07913  0  0.105529  0.115574  0  0.997713  0
H  H75  1  0.89287334  0.77281224  0.36587635  1  0.091811  0  0.105543  0.115598  0  0.997693  0
H  H76  1  0.89287418  0.59306365  0.22718687  1  0.070139  0  0.105547  0.115611  0  0.99767  0
H  H77  1  0.89287244  0.63412279  0.40693529  1  0.080773  0  0.105546  0.115605  0  0.997637  0
H  H78  1  0.10712432  0.77280937  0.40693420  1  0.068527  0  0.105536  0.115633  0  0.997623  0
H  H79  1  0.10712176  0.59306480  0.36587551  1  0.081149  0  0.105536  0.115606  0  0.997619  0
H  H80  1  0.10712434  0.63412437  0.22718985  1  0.091856  0  0.105541  0.115646  0  0.997563  0
H  H81  1  0.60712361  0.22719039  0.59306572  1  0.072975  0  0.105563  0.115682  0  0.997586  0
H  H82  1  0.60712366  0.40693496  0.63412440  1  0.08079  0  0.105541  0.115625  0  0.997642  0
H  H83  1  0.60712442  0.36587579  0.77281046  1  0.091851  0  0.105536  0.11564  0  0.997576  0
H  H84  1  0.60394895  0.83059049  0.31044109  1  0.038726  0  0.10046  0.097914  0  1.009178  0
H  H85  1  0.60394889  0.47985093  0.16940916  1  0.07131  0  0.100496  0.097968  0  1.009234  0
H  H86  1  0.60394881  0.68955741  0.52014896  1  0.032879  0  0.100494  0.097959  0  1.009204  0
H  H87  1  0.10394899  0.16940973  0.68955836  1  0.038267  0  0.100465  0.097945  0  1.009174  0
H  H88  1  0.10394905  0.52014906  0.83059052  1  0.071318  0  0.100504  0.098019  0  1.009205  0
H  H89  1  0.10394997  0.31044252  0.47985158  1  0.033888  0  0.100501  0.09799  0  1.009206  0
H  H90  1  0.89605059  0.16941203  0.47985269  1  0.070349  0  0.100444  0.097925  0  1.009195  0
H  H91  1  0.89605062  0.52014811  0.68955861  1  0.033411  0  0.10044  0.09789  0  1.009192  0
H  H92  1  0.89605049  0.31044127  0.83058898  1  0.037229  0  0.100472  0.097932  0  1.009181  0
H  H93  1  0.39605123  0.83058838  0.52014734  1  0.071414  0  0.100442  0.097931  0  1.009193  0
H  H94  1  0.39605120  0.47985190  0.31044103  1  0.032757  0  0.100477  0.097994  0  1.009143  0
H  H95  1  0.39605050  0.68955811  0.16941049  1  0.038269  0  0.100475  0.097958  0  1.009172  0
H  H96  1  0.39605093  0.16940951  0.68955857  1  0.037656  0  0.100451  0.097923  0  1.009189  0
H  H97  1  0.39605016  0.52014907  0.83059050  1  0.070246  0  0.100482  0.097949  0  1.009272  0
H  H98  1  0.39604940  0.31044253  0.47985156  1  0.032776  0  0.100498  0.097968  0  1.009212  0
H  H99  1  0.89605005  0.83059090  0.31044146  1  0.037205  0  0.100459  0.097921  0  1.009162  0
H  H100  1  0.89605083  0.47985054  0.16940874  1  0.070235  0  0.100497  0.097971  0  1.009225  0
H  H101  1  0.89605159  0.68955765  0.52014871  1  0.033864  0  0.100491  0.097948  0  1.009232  0
H  H102  1  0.10394929  0.83058837  0.52014736  1  0.07034  0  0.100436  0.097926  0  1.009208  0
H  H103  1  0.10394759  0.47985143  0.31044151  1  0.033388  0  0.100486  0.097977  0  1.009124  0
H  H104  1  0.10394939  0.68955850  0.16941091  1  0.037242  0  0.100471  0.097953  0  1.009176  0
H  H105  1  0.60394865  0.16941162  0.47985232  1  0.071399  0  0.100472  0.097956  0  1.009178  0
H  H106  1  0.60394952  0.52014810  0.68955863  1  0.032772  0  0.100441  0.097903  0  1.009184  0
H  H107  1  0.60394855  0.31044126  0.83058900  1  0.038301  0  0.100476  0.09795  0  1.009174  0
H  H108  1  0.74999964  0.90582620  0.04431382  1  0.625305  0  0.326125  0.417211  0  0.861128  0
H  H109  1  0.75000019  0.13848837  0.09417442  1  0.571887  0  0.326137  0.417204  0  0.861127  0
H  H110  1  0.75000014  0.95568616  0.86151144  1  0.577656  0  0.326112  0.417188  0  0.860979  0
H  H111  1  0.25000024  0.09417443  0.95568600  1  0.624509  0  0.326139  0.417231  0  0.861102  0
H  H112  1  0.24999969  0.86151100  0.90582507  1  0.571884  0  0.326134  0.417237  0  0.861054  0
H  H113  1  0.24999974  0.04431400  0.13848885  1  0.577668  0  0.326137  0.417246  0  0.860907  0
H  H114  1  0.75000016  0.09417647  0.13849041  1  0.571829  0  0.326069  0.417109  0  0.861205  0
H  H115  1  0.75000007  0.86150979  0.95568561  1  0.57763  0  0.326078  0.417122  0  0.861057  0
H  H116  1  0.74999981  0.04431426  0.90582436  1  0.624595  0  0.32608  0.417135  0  0.861194  0
H  H117  1  0.24999972  0.90582353  0.86150925  1  0.571847  0  0.3261  0.41716  0  0.86116  0
H  H118  1  0.24999981  0.13849021  0.04431405  1  0.57763  0  0.326088  0.417157  0  0.861007  0
H  H119  1  0.25000007  0.95568631  0.09417633  1  0.62459  0  0.326087  0.417146  0  0.861175  0
C  C120  1  0.58639945  0.84079224  0.20901622  1  -0.000473  0  -0.093844  -0.138409  0  3.992056  0
C  C121  1  0.58639931  0.36822425  0.15920797  1  -0.000303  0  -0.093862  -0.138459  0  3.99212  0
C  C122  1  0.58639925  0.79098318  0.63177496  1  0.001941  0  -0.093848  -0.1384  0  3.992042  0
C  C123  1  0.08639856  0.15920837  0.79098363  1  -0.000541  0  -0.093857  -0.138422  0  3.992111  0
C  C124  1  0.08639871  0.63177574  0.84079172  1  0.001468  0  -0.093825  -0.138377  0  3.992061  0
C  C125  1  0.08639960  0.20901634  0.36822518  1  0.00073  0  -0.093837  -0.138372  0  3.992003  0
C  C126  1  0.91360269  0.15920934  0.36822490  1  -0.001788  0  -0.093847  -0.138405  0  3.991947  0
C  C127  1  0.91360183  0.63177638  0.79098449  1  0.000251  0  -0.09385  -0.138416  0  3.991955  0
C  C128  1  0.91360250  0.20901626  0.84079192  1  -0.000535  0  -0.093875  -0.138415  0  3.992038  0
C  C129  1  0.41360325  0.84079038  0.63177583  1  0.001042  0  -0.093811  -0.138282  0  3.9919  0
C  C130  1  0.41360326  0.36822427  0.20901531  1  0.001528  0  -0.093835  -0.138318  0  3.991989  0
C  C131  1  0.41360343  0.79098415  0.15920812  1  -0.001832  0  -0.09379  -0.138292  0  3.991992  0
C  C132  1  0.41360127  0.15920839  0.79098361  1  -0.000523  0  -0.093864  -0.138469  0  3.992144  0
C  C133  1  0.41360141  0.63177575  0.84079169  1  -0.000213  0  -0.093838  -0.138418  0  3.992099  0
C  C134  1  0.41360063  0.20901658  0.36822493  1  0.00198  0  -0.093862  -0.138415  0  3.992046  0
C  C135  1  0.91360048  0.84079226  0.20901620  1  -0.000412  0  -0.093844  -0.138435  0  3.992068  0
C  C136  1  0.91360034  0.36822426  0.15920794  1  0.001352  0  -0.093842  -0.138432  0  3.992084  0
C  C137  1  0.91360112  0.79098297  0.63177517  1  0.000687  0  -0.093862  -0.138403  0  3.992055  0
C  C138  1  0.08639636  0.84079060  0.63177562  1  -0.001806  0  -0.09383  -0.138319  0  3.991967  0
C  C139  1  0.08639637  0.36822402  0.20901557  1  0.000391  0  -0.093844  -0.13837  0  3.991959  0
C  C140  1  0.08639654  0.79098454  0.15920854  1  -0.000475  0  -0.093808  -0.138294  0  3.991953  0
C  C141  1  0.58639664  0.15920933  0.36822492  1  0.000994  0  -0.093844  -0.138404  0  3.991927  0
C  C142  1  0.58639829  0.63177636  0.79098452  1  0.001389  0  -0.093851  -0.138377  0  3.99195  0
C  C143  1  0.58639729  0.20901545  0.84079114  1  -0.001814  0  -0.09386  -0.138377  0  3.992015  0
C  C144  1  0.58597162  0.87348646  0.17755228  1  -0.090079  0  -0.08113  -0.084799  0  3.983951  0
C  C145  1  0.58597480  0.30406612  0.12651300  1  -0.10113  0  -0.08122  -0.084869  0  3.983919  0
C  C146  1  0.58597389  0.82244693  0.69593324  1  -0.090756  0  -0.081129  -0.084779  0  3.983876  0
C  C147  1  0.08597487  0.12651313  0.82244700  1  -0.097687  0  -0.081209  -0.084871  0  3.983885  0
C  C148  1  0.08597588  0.69593483  0.87348812  1  -0.101879  0  -0.081257  -0.08498  0  3.983913  0
C  C149  1  0.08597679  0.17755329  0.30406621  1  -0.090052  0  -0.081209  -0.084853  0  3.983861  0
C  C150  1  0.91402888  0.12651524  0.30406664  1  -0.101516  0  -0.081176  -0.084865  0  3.983828  0
C  C151  1  0.91402970  0.69593430  0.82244932  1  -0.089943  0  -0.081138  -0.084784  0  3.984048  0
C  C152  1  0.91402782  0.17755175  0.87348603  1  -0.097654  0  -0.081204  -0.084942  0  3.983913  0
C  C153  1  0.41402606  0.87348511  0.69593425  1  -0.100004  0  -0.0812  -0.084919  0  3.983791  0
C  C154  1  0.41402776  0.30406565  0.17755117  1  -0.089814  0  -0.081177  -0.084894  0  3.983878  0
C  C155  1  0.41402545  0.82244809  0.12651297  1  -0.096437  0  -0.081238  -0.084998  0  3.983861  0
C  C156  1  0.41402575  0.12651228  0.82244704  1  -0.090034  0  -0.081208  -0.08488  0  3.98393  0
C  C157  1  0.41402425  0.69593461  0.87348832  1  -0.101574  0  -0.081254  -0.084979  0  3.983888  0
C  C158  1  0.41402348  0.17755331  0.30406618  1  -0.090786  0  -0.08121  -0.084846  0  3.983891  0
C  C159  1  0.91402836  0.87348647  0.17755226  1  -0.097705  0  -0.081124  -0.084773  0  3.983958  0
C  C160  1  0.91402484  0.30406550  0.12651280  1  -0.101438  0  -0.081207  -0.084848  0  3.983903  0
C  C161  1  0.91402561  0.82244694  0.69593322  1  -0.090038  0  -0.081145  -0.084813  0  3.983908  0
C  C162  1  0.08597351  0.87348573  0.69593445  1  -0.10163  0  -0.081162  -0.084884  0  3.983838  0
C  C163  1  0.08597186  0.30406564  0.17755119  1  -0.089909  0  -0.081194  -0.084903  0  3.983854  0
C  C164  1  0.08597457  0.82244871  0.12651316  1  -0.097637  0  -0.081213  -0.084967  0  3.983795  0
C  C165  1  0.58597131  0.12651505  0.30406604  1  -0.100068  0  -0.081175  -0.08486  0  3.983826  0
C  C166  1  0.58597045  0.69593388  0.82244895  1  -0.089853  0  -0.081117  -0.08475  0  3.984003  0
C  C167  1  0.58597276  0.17755094  0.87348526  1  -0.096445  0  -0.08116  -0.084814  0  3.983874  0
C  C168  1  0.56015627  0.75474617  0.32291242  1  -0.098106  0  -0.099903  -0.179403  0  4.016257  0
C  C169  1  0.56015541  0.56816626  0.24525344  1  -0.137631  0  -0.099849  -0.179282  0  4.01622  0
C  C170  1  0.56015620  0.67708656  0.43183398  1  -0.087572  0  -0.099841  -0.179295  0  4.016236  0
C  C171  1  0.06015554  0.24525382  0.67708726  1  -0.095536  0  -0.099866  -0.179314  0  4.016225  0
C  C172  1  0.06015557  0.43183350  0.75474647  1  -0.137707  0  -0.099874  -0.179303  0  4.016285  0
C  C173  1  0.06015645  0.32291319  0.56816593  1  -0.09096  0  -0.099861  -0.179311  0  4.016238  0
C  C174  1  0.93984573  0.24525530  0.56816666  1  -0.137748  0  -0.099866  -0.179403  0  4.016277  0
C  C175  1  0.93984659  0.43183324  0.67708780  1  -0.09069  0  -0.099838  -0.179313  0  4.016204  0
C  C176  1  0.93984652  0.32291224  0.75474564  1  -0.095406  0  -0.099898  -0.179444  0  4.016233  0
C  C177  1  0.43984640  0.75474425  0.43183343  1  -0.140381  0  -0.09989  -0.179415  0  4.016366  0
C  C178  1  0.43984722  0.56816654  0.32291206  1  -0.090847  0  -0.099834  -0.179243  0  4.016205  0
C  C179  1  0.43984645  0.67708731  0.24525445  1  -0.095528  0  -0.099853  -0.179335  0  4.016251  0
C  C180  1  0.43984445  0.24525383  0.67708724  1  -0.098116  0  -0.099861  -0.17932  0  4.016217  0
C  C181  1  0.43984448  0.43183351  0.75474644  1  -0.137682  0  -0.099896  -0.179359  0  4.016271  0
C  C182  1  0.43984284  0.32291361  0.56816631  1  -0.087606  0  -0.09986  -0.179284  0  4.016223  0
C  C183  1  0.93984350  0.75474658  0.32291279  1  -0.09552  0  -0.099844  -0.179288  0  4.016165  0
C  C184  1  0.93984431  0.56816627  0.24525342  1  -0.137686  0  -0.099867  -0.179304  0  4.016201  0
C  C185  1  0.93984426  0.67708657  0.43183395  1  -0.090957  0  -0.099863  -0.179371  0  4.016171  0
C  C186  1  0.06015415  0.75474447  0.43183323  1  -0.137756  0  -0.099882  -0.17938  0  4.016372  0
C  C187  1  0.06015330  0.56816630  0.32291232  1  -0.090696  0  -0.09986  -0.179265  0  4.016156  0
C  C188  1  0.06015337  0.67708793  0.24525465  1  -0.095444  0  -0.099871  -0.179394  0  4.016199  0
C  C189  1  0.56015348  0.24525529  0.56816669  1  -0.140393  0  -0.099867  -0.179362  0  4.016335  0
C  C190  1  0.56015350  0.43183346  0.67708760  1  -0.090857  0  -0.09984  -0.179292  0  4.016183  0
C  C191  1  0.56015343  0.32291222  0.75474567  1  -0.095445  0  -0.0999  -0.179436  0  4.016236  0
C  C192  1  0.55876473  0.78695220  0.29097831  1  0.034523  0  -0.090936  -0.112812  0  4.003665  0
C  C193  1  0.55876634  0.50402583  0.21304635  1  0.064522  0  -0.090928  -0.112855  0  4.003586  0
C  C194  1  0.55876629  0.70901981  0.49597313  1  -0.007186  0  -0.090914  -0.112836  0  4.0036  0
C  C195  1  0.05876562  0.21304755  0.70902161  1  0.035373  0  -0.090985  -0.112968  0  4.003719  0
C  C196  1  0.05876569  0.49597375  0.78695294  1  0.064579  0  -0.091028  -0.113082  0  4.003725  0
C  C197  1  0.05876574  0.29097971  0.50402702  1  -0.007017  0  -0.090941  -0.112902  0  4.003681  0
C  C198  1  0.94123565  0.21304854  0.50402743  1  0.064562  0  -0.090988  -0.11295  0  4.003782  0
C  C199  1  0.94123565  0.49597335  0.70902162  1  -0.006605  0  -0.090969  -0.112915  0  4.003736  0
C  C200  1  0.94123555  0.29097922  0.78695231  1  0.035147  0  -0.090954  -0.112852  0  4.003607  0
C  C201  1  0.44123461  0.78695147  0.49597220  1  0.064115  0  -0.090983  -0.112982  0  4.003738  0
C  C202  1  0.44123627  0.50402620  0.29097847  1  -0.007077  0  -0.09106  -0.11311  0  4.00374  0
C  C203  1  0.44123554  0.70902056  0.21304755  1  0.035168  0  -0.090996  -0.112994  0  4.003679  0
C  C204  1  0.44123432  0.21304757  0.70902158  1  0.034512  0  -0.090965  -0.112918  0  4.003704  0
C  C205  1  0.44123354  0.49597377  0.78695291  1  0.064549  0  -0.09094  -0.112861  0  4.003671  0
C  C206  1  0.44123360  0.29098012  0.50402739  1  -0.00707  0  -0.090907  -0.112822  0  4.003601  0
C  C207  1  0.94123510  0.78695222  0.29097828  1  0.035377  0  -0.090944  -0.112862  0  4.003665  0
C  C208  1  0.94123420  0.50402601  0.21304695  1  0.064571  0  -0.090961  -0.112894  0  4.003672  0
C  C209  1  0.94123415  0.70901960  0.49597333  1  -0.007012  0  -0.090916  -0.112809  0  4.003603  0
C  C210  1  0.05876591  0.78695146  0.49597223  1  0.064559  0  -0.090963  -0.112981  0  4.003745  0
C  C211  1  0.05876255  0.50402659  0.29097890  1  -0.006621  0  -0.091019  -0.113031  0  4.003726  0
C  C212  1  0.05876433  0.70902094  0.21304798  1  0.035195  0  -0.090991  -0.112955  0  4.00366  0
C  C213  1  0.55876444  0.21304893  0.50402786  1  0.064142  0  -0.091007  -0.113003  0  4.003743  0
C  C214  1  0.55876445  0.49597333  0.70902165  1  -0.00705  0  -0.090987  -0.112973  0  4.003748  0
C  C215  1  0.55876434  0.29097944  0.78695211  1  0.035172  0  -0.090966  -0.1129  0  4.003664  0
C  C216  1  0.50000135  0.69932521  0.30067460  1  0.313283  0  0.092717  0.181329  0  4.037649  0
C  C217  1  0.50000299  0.60134902  0.30067381  1  0.329253  0  0.09265  0.181156  0  4.037732  0
C  C218  1  0.50000298  0.69932440  0.39865019  1  0.325881  0  0.092655  0.1813  0  4.037618  0
C  C219  1  0.00000232  0.30067391  0.69932516  1  0.31329  0  0.092689  0.181276  0  4.037684  0
C  C220  1  0.00000235  0.39865073  0.69932611  1  0.328709  0  0.092711  0.181295  0  4.037691  0
C  C221  1  0.00000236  0.30067598  0.60134991  1  0.32943  0  0.092656  0.181269  0  4.037589  0
C  C222  1  0.49999769  0.30067416  0.69932489  1  0.313295  0  0.09269  0.181284  0  4.03767  0
C  C223  1  0.49999689  0.39865075  0.69932607  1  0.329253  0  0.092712  0.181298  0  4.037676  0
C  C224  1  0.49999774  0.30067577  0.60135010  1  0.325893  0  0.092626  0.181169  0  4.037739  0
C  C225  1  0.99999844  0.69932583  0.30067481  1  0.313304  0  0.092683  0.181261  0  4.037649  0
C  C226  1  0.99999670  0.60134927  0.30067354  1  0.328759  0  0.092655  0.181182  0  4.037658  0
C  C227  1  0.99999752  0.69932402  0.39864975  1  0.329452  0  0.092681  0.181349  0  4.037544  0
C  C228  1  0.50000056  0.76497643  0.23502405  1  -0.02371  0  -0.015749  0.049124  0  4.011414  0
C  C229  1  0.50000046  0.47004779  0.23502340  1  0.018587  0  -0.015772  0.049101  0  4.011373  0
C  C230  1  0.50000044  0.76497539  0.52995259  1  -0.028561  0  -0.015805  0.049088  0  4.01127  0
C  C231  1  0.00000059  0.23502355  0.76497565  1  -0.024149  0  -0.015746  0.04916  0  4.01143  0
C  C232  1  0.99999985  0.52995219  0.76497629  1  0.018539  0  -0.01572  0.049202  0  4.01141  0
C  C233  1  0.00000072  0.23502500  0.47004751  1  -0.029083  0  -0.015775  0.049102  0  4.011396  0
C  C234  1  0.49999932  0.23502380  0.76497538  1  -0.023694  0  -0.015728  0.049179  0  4.01144  0
C  C235  1  0.49999942  0.52995221  0.76497626  1  0.018539  0  -0.015737  0.049159  0  4.011416  0
C  C236  1  0.49999944  0.23502478  0.47004770  1  -0.028524  0  -0.01579  0.049085  0  4.011291  0
C  C237  1  0.99999933  0.76497641  0.23502408  1  -0.02415  0  -0.015745  0.049133  0  4.011386  0
C  C238  1  0.99999922  0.47004777  0.23502344  1  0.018576  0  -0.015729  0.049144  0  4.011447  0
C  C239  1  0.00000004  0.76497537  0.52995262  1  -0.02905  0  -0.015811  0.049088  0  4.011272  0
C  C240  1  0.49999975  0.79904251  0.20095629  1  0.003613  0  -0.005159  0.077167  0  4.001029  0
C  C241  1  0.50000129  0.40191381  0.20095653  1  0.027744  0  -0.005078  0.077238  0  4.001044  0
C  C242  1  0.49999958  0.79904215  0.59808514  1  0.074648  0  -0.005086  0.077201  0  4.00103  0
C  C243  1  0.00000056  0.20095707  0.79904300  1  0.003277  0  -0.005096  0.077191  0  4.001089  0
C  C244  1  0.00000154  0.59808634  0.79904379  1  0.026362  0  -0.00513  0.077196  0  4.00102  0
C  C245  1  0.00000157  0.20095824  0.40191495  1  0.07693  0  -0.005094  0.077212  0  4.001025  0
C  C246  1  0.49999929  0.20095686  0.79904320  1  0.003657  0  -0.005092  0.077198  0  4.001138  0
C  C247  1  0.49999775  0.59808613  0.79904398  1  0.027762  0  -0.005123  0.077202  0  4.00103  0
C  C248  1  0.49999862  0.20095825  0.40191491  1  0.074561  0  -0.005081  0.077226  0  4.001041  0
C  C249  1  0.00000019  0.79904272  0.20095610  1  0.003175  0  -0.005159  0.077177  0  4.001036  0
C  C250  1  0.99999751  0.40191360  0.20095673  1  0.026356  0  -0.005094  0.077221  0  4.001026  0
C  C251  1  0.00000002  0.79904213  0.59808518  1  0.076972  0  -0.005092  0.077193  0  4.001052  0
C  C252  1  0.50000315  0.86435026  0.13565321  1  0.012206  0  -0.018796  -0.040467  0  3.976367  0
C  C253  1  0.50000127  0.27130312  0.13565073  1  0.009576  0  -0.018754  -0.040435  0  3.976223  0
C  C254  1  0.50000290  0.86434622  0.72869609  1  -0.043522  0  -0.018815  -0.04052  0  3.976386  0
C  C255  1  0.00000051  0.13565092  0.86434769  1  0.020169  0  -0.018752  -0.04042  0  3.976182  0
C  C256  1  0.99999737  0.72869646  0.86434856  1  0.011107  0  -0.018812  -0.040524  0  3.976476  0
C  C257  1  0.00000077  0.13565266  0.27130390  1  -0.042134  0  -0.018809  -0.04051  0  3.976372  0
C  C258  1  0.50000008  0.13565014  0.86434685  1  0.012173  0  -0.018798  -0.040509  0  3.976312  0
C  C259  1  0.50000279  0.72869608  0.86434813  1  0.010071  0  -0.018807  -0.040523  0  3.976436  0
C  C260  1  0.49999950  0.13565268  0.27130386  1  -0.043521  0  -0.018809  -0.04052  0  3.976391  0
C  C261  1  0.99999689  0.86435024  0.13565325  1  0.020164  0  -0.018799  -0.040508  0  3.976412  0
C  C262  1  0.99999916  0.27130337  0.13565046  1  0.010664  0  -0.018768  -0.040461  0  3.97621  0
C  C263  1  0.99999660  0.86434664  0.72869645  1  0.010145  0  -0.018834  -0.040531  0  3.976384  0
C  C264  1  0.49998978  0.89872409  0.10126970  1  1.519261  0  0.227906  0.619807  0  4.149783  0
C  C265  1  0.49999792  0.20254586  0.10127279  1  1.526481  0  0.227909  0.619793  0  4.149704  0
C  C266  1  0.49999200  0.89872824  0.79745335  1  1.578794  0  0.227884  0.619787  0  4.149833  0
C  C267  1  0.00000384  0.10127046  0.89872503  1  1.518654  0  0.227876  0.619781  0  4.149814  0
C  C268  1  0.00001077  0.79745432  0.89873310  1  1.5265  0  0.227926  0.61981  0  4.149634  0
C  C269  1  0.00000748  0.10127708  0.20254660  1  1.578241  0  0.227875  0.619704  0  4.149888  0
C  C270  1  0.49999670  0.10127031  0.89872436  1  1.519428  0  0.22789  0.619796  0  4.149793  0
C  C271  1  0.49998857  0.79745434  0.89873306  1  1.526664  0  0.227989  0.619938  0  4.149514  0
C  C272  1  0.49999281  0.10127670  0.20254616  1  1.578613  0  0.227875  0.61972  0  4.149879  0
C  C273  1  0.00001031  0.89872448  0.10127014  1  1.51834  0  0.227925  0.61984  0  4.149761  0
C  C274  1  0.00000170  0.20254561  0.10127306  1  1.526266  0  0.227945  0.61984  0  4.149654  0
C  C275  1  0.00000750  0.89872862  0.79745379  1  1.526379  0  0.227891  0.619797  0  4.14976  0
N  N276  1  0.50000384  0.66666654  0.33333334  1  -1.188409  0  -0.250143  -0.149636  0  3.673356  0
N  N277  1  0.00000318  0.33333361  0.66666698  1  -1.188404  0  -0.250154  -0.149654  0  3.673411  0
N  N278  1  0.49999688  0.33333363  0.66666694  1  -1.188453  0  -0.250168  -0.149658  0  3.673449  0
N  N279  1  0.99999670  0.66666655  0.33333331  1  -1.188447  0  -0.250165  -0.149672  0  3.673416  0
O  O280  1  0.56988989  0.94258005  0.11789172  1  -1.134773  0  -0.343452  -0.585435  0  2.330738  0
O  O281  1  0.56988630  0.17531268  0.05742283  1  -1.148482  0  -0.343443  -0.585344  0  2.331156  0
O  O282  1  0.56989041  0.88210825  0.82468729  1  -1.13912  0  -0.343458  -0.585413  0  2.330844  0
O  O283  1  0.06988383  0.05742469  0.88211041  1  -1.134935  0  -0.343378  -0.585247  0  2.331608  0
O  O284  1  0.06987737  0.82468497  0.94257359  1  -1.148848  0  -0.343428  -0.585246  0  2.331926  0
O  O285  1  0.06988332  0.11789029  0.17531464  1  -1.139257  0  -0.34341  -0.585227  0  2.331688  0
O  O286  1  0.93011321  0.05742502  0.17531393  1  -1.147989  0  -0.343427  -0.585307  0  2.330945  0
O  O287  1  0.93010898  0.82468751  0.88211134  1  -1.138889  0  -0.34347  -0.585394  0  2.330503  0
O  O288  1  0.93011374  0.11788842  0.94257547  1  -1.135107  0  -0.343467  -0.585368  0  2.331052  0
O  O289  1  0.43011953  0.94257161  0.82468509  1  -1.148748  0  -0.343405  -0.585246  0  2.331789  0
O  O290  1  0.43011622  0.17531445  0.11788794  1  -1.139207  0  -0.343461  -0.585326  0  2.331425  0
O  O291  1  0.43012068  0.88211324  0.05742812  1  -1.135879  0  -0.343432  -0.585262  0  2.331877  0
O  O292  1  0.43011836  0.05742390  0.88210958  1  -1.135103  0  -0.343413  -0.58526  0  2.331561  0
O  O293  1  0.43012195  0.82468505  0.94257270  1  -1.148969  0  -0.343423  -0.585271  0  2.331921  0
O  O294  1  0.43011701  0.11789030  0.17531461  1  -1.139257  0  -0.343386  -0.585209  0  2.331684  0
O  O295  1  0.93011019  0.94257984  0.11789192  1  -1.134616  0  -0.343451  -0.585433  0  2.330712  0
O  O296  1  0.93011330  0.17531269  0.05742281  1  -1.148313  0  -0.343454  -0.585356  0  2.331147  0
O  O297  1  0.93010986  0.88210827  0.82468727  1  -1.13913  0  -0.343432  -0.585357  0  2.330799  0
O  O298  1  0.06988081  0.94257223  0.82468529  1  -1.148404  0  -0.343414  -0.585265  0  2.33175  0
O  O299  1  0.06988336  0.17531444  0.11788797  1  -1.139211  0  -0.343487  -0.585338  0  2.33143  0
O  O300  1  0.06987945  0.88211363  0.05742854  1  -1.135129  0  -0.343459  -0.585268  0  2.331882  0
O  O301  1  0.56988705  0.05742460  0.17531355  1  -1.148398  0  -0.343441  -0.585332  0  2.330946  0
O  O302  1  0.56989204  0.82468733  0.88211073  1  -1.138895  0  -0.343518  -0.585477  0  2.330436  0
O  O303  1  0.56988591  0.11788863  0.94257526  1  -1.135712  0  -0.343436  -0.585359  0  2.331058  0
O  O304  1  0.74999965  0.95049266  0.06644346  1  -1.141296  0  -0.659273  -0.915332  0  2.147831  0
O  O305  1  0.74999937  0.11595020  0.04950766  1  -1.106261  0  -0.659273  -0.915284  0  2.147796  0
O  O306  1  0.74999929  0.93355758  0.88404966  1  -1.125437  0  -0.659258  -0.91528  0  2.147635  0
O  O307  1  0.25000107  0.04950751  0.93355683  1  -1.140514  0  -0.659265  -0.915323  0  2.147784  0
O  O308  1  0.24999968  0.88404934  0.95049246  1  -1.106281  0  -0.659261  -0.915318  0  2.147702  0
O  O309  1  0.25000059  0.06644345  0.11595057  1  -1.12533  0  -0.659256  -0.915335  0  2.147557  0
O  O310  1  0.75000015  0.04950953  0.11595247  1  -1.116438  0  -0.659213  -0.915191  0  2.147827  0
O  O311  1  0.75000009  0.88404876  0.93355777  1  -1.099424  0  -0.659232  -0.915186  0  2.147652  0
O  O312  1  0.74999896  0.06644240  0.95049076  1  -1.140395  0  -0.659243  -0.915226  0  2.147827  0
O  O313  1  0.25000057  0.95049144  0.88404862  1  -1.116553  0  -0.659252  -0.915279  0  2.147825  0
O  O314  1  0.25000063  0.11595221  0.06644331  1  -1.099258  0  -0.659245  -0.915255  0  2.14765  0
O  O315  1  0.25000008  0.93355760  0.04950890  1  -1.14053  0  -0.659237  -0.915238  0  2.14778  0
O  O316  1  0.42574722  0.00000101  0.06767112  1  -1.093684  0  -0.718437  -1.147815  0  2.007642  0
O  O317  1  0.42574600  0.06767041  0.99999967  1  -1.09368  0  -0.71846  -1.147894  0  2.00772  0
O  O318  1  0.42574716  0.93232929  0.93232943  1  -1.090868  0  -0.718469  -1.147818  0  2.007682  0
O  O319  1  0.92574473  0.99999912  0.93232919  1  -1.092958  0  -0.718429  -1.147778  0  2.007689  0
O  O320  1  0.92574462  0.93233040  0.00000076  1  -1.093418  0  -0.718447  -1.147829  0  2.00767  0
O  O321  1  0.92574513  0.06767089  0.06767083  1  -1.090658  0  -0.718453  -1.147835  0  2.007716  0
O  O322  1  0.07425313  0.00000100  0.06767114  1  -1.093414  0  -0.718455  -1.147824  0  2.007646  0
O  O323  1  0.07425308  0.93232928  0.93232946  1  -1.091377  0  -0.718471  -1.147802  0  2.00766  0
O  O324  1  0.07425443  0.06767017  0.99999993  1  -1.093586  0  -0.718451  -1.147851  0  2.007767  0
O  O325  1  0.57425483  0.99999911  0.93232922  1  -1.093729  0  -0.71844  -1.147801  0  2.007694  0
O  O326  1  0.57425439  0.06767087  0.06767086  1  -1.090768  0  -0.718462  -1.147839  0  2.007674  0
O  O327  1  0.57425556  0.93233062  0.00000056  1  -1.093556  0  -0.718439  -1.147808  0  2.0077  0
