# generated using pymatgen
data_MoH18C17(NO)4
_symmetry_space_group_name_H-M   'P 1'
_cell_length_a   13.12503208
_cell_length_b   13.63108854
_cell_length_c   13.63097810
_cell_angle_alpha   82.31970208
_cell_angle_beta   72.76010592
_cell_angle_gamma   72.76001396
_symmetry_Int_Tables_number   1
_chemical_formula_structural   MoH18C17(NO)4
_chemical_formula_sum   'Mo4 H72 C68 N16 O16'
_cell_volume   2221.68165224
_cell_formula_units_Z   4
loop_
 _symmetry_equiv_pos_site_id
 _symmetry_equiv_pos_as_xyz
  1  'x, y, z'
loop_
 _atom_site_type_symbol
 _atom_site_label
 _atom_site_symmetry_multiplicity
 _atom_site_fract_x
 _atom_site_fract_y
 _atom_site_fract_z
 _atom_site_occupancy
 _atom_site_pbe_bader_charge
 _atom_site_pbe_bader_spin_density
 _atom_site_pbe_cm5_charge
 _atom_site_pbe_ddec_charge
 _atom_site_pbe_ddec_spin_density
 _atom_site_pbe_ddec_sum_bond_order
 _atom_site_pbe_magmom
Mo  Mo0  1  0.99149981  0.21800437  0.59588300  1  2.555167  0  1.55721  1.835044  0  4.794824  0
Mo  Mo1  1  0.50850758  0.40411449  0.78199603  1  2.555046  0  1.557233  1.835004  0  4.794749  0
Mo  Mo2  1  0.00849950  0.78199209  0.40411885  1  2.555113  0  1.55729  1.835078  0  4.794897  0
Mo  Mo3  1  0.49149466  0.59588279  0.21800485  1  2.555114  0  1.557207  1.834946  0  4.794805  0
H  H4  1  0.30987825  0.02361275  0.63519866  1  0.075909  0  0.110698  0.136111  0  1.01057  0
H  H5  1  0.19012071  0.36480291  0.97638583  1  0.075921  0  0.110702  0.13612  0  1.010579  0
H  H6  1  0.69012377  0.97637990  0.36479483  1  0.07577  0  0.11068  0.136117  0  1.010547  0
H  H7  1  0.80987963  0.63520052  0.02361478  1  0.075831  0  0.11067  0.136083  0  1.010571  0
H  H8  1  0.40645735  0.79490347  0.40519334  1  0.102831  0  0.101478  0.131116  0  1.064793  0
H  H9  1  0.09354423  0.59480512  0.20509790  1  0.102839  0  0.101509  0.131179  0  1.064858  0
H  H10  1  0.59354707  0.20509694  0.59479989  1  0.10299  0  0.10152  0.131155  0  1.064797  0
H  H11  1  0.90645453  0.40519829  0.79490391  1  0.102942  0  0.101483  0.131124  0  1.064867  0
H  H12  1  0.24369508  0.88603311  0.34709151  1  0.114105  0  0.11052  0.126225  0  0.988182  0
H  H13  1  0.25630273  0.65290972  0.11397055  1  0.114009  0  0.110521  0.126238  0  0.988134  0
H  H14  1  0.75630824  0.11396573  0.65290444  1  0.114161  0  0.110504  0.12619  0  0.98819  0
H  H15  1  0.74369817  0.34709449  0.88602907  1  0.11403  0  0.110491  0.126206  0  0.98817  0
H  H16  1  0.08108743  0.02153379  0.35247358  1  0.143564  0  0.127482  0.115022  0  0.97979  0
H  H17  1  0.41891139  0.64752810  0.97846888  1  0.14355  0  0.127466  0.114981  0  0.979804  0
H  H18  1  0.91891075  0.97846884  0.64752556  1  0.143596  0  0.12748  0.115054  0  0.979782  0
H  H19  1  0.58109148  0.35247228  0.02153067  1  0.143588  0  0.12742  0.114937  0  0.97982  0
H  H20  1  0.81683171  0.22530867  0.27336992  1  0.121298  0  0.115586  0.125231  0  0.993509  0
H  H21  1  0.68315997  0.72663512  0.77469200  1  0.121182  0  0.115586  0.125266  0  0.993501  0
H  H22  1  0.18316791  0.77468934  0.72663235  1  0.121289  0  0.115593  0.125235  0  0.993525  0
H  H23  1  0.31684106  0.27336601  0.22530505  1  0.121162  0  0.115603  0.12528  0  0.993462  0
H  H24  1  0.67105729  0.34161826  0.19623022  1  0.059433  0  0.11181  0.077295  0  1.032562  0
H  H25  1  0.82893456  0.80377173  0.65838455  1  0.059509  0  0.111828  0.077293  0  1.032569  0
H  H26  1  0.32894296  0.65838285  0.80376852  1  0.059097  0  0.111815  0.077281  0  1.032558  0
H  H27  1  0.17106598  0.19623094  0.34161024  1  0.059529  0  0.111841  0.07725  0  1.032558  0
H  H28  1  0.55987757  0.54012867  0.43298553  1  0.118508  0  0.114004  0.08526  0  1.038261  0
H  H29  1  0.94012101  0.56701509  0.45987512  1  0.1186  0  0.114005  0.085215  0  1.038253  0
H  H30  1  0.44011588  0.45986614  0.56702190  1  0.118489  0  0.113969  0.085213  0  1.03822  0
H  H31  1  0.05987995  0.43298372  0.54012373  1  0.1186  0  0.114024  0.085214  0  1.038247  0
H  H32  1  0.69408155  0.42756481  0.52567122  1  0.106477  0  0.110477  0.128601  0  1.035426  0
H  H33  1  0.80591526  0.47433395  0.57243702  1  0.106778  0  0.110497  0.128646  0  1.035397  0
H  H34  1  0.30591499  0.57242774  0.47433488  1  0.106478  0  0.110465  0.128601  0  1.035393  0
H  H35  1  0.19408284  0.52566636  0.42756246  1  0.106772  0  0.11052  0.128656  0  1.035414  0
H  H36  1  0.48004543  0.70689975  0.50822928  1  0.069664  0  0.10307  0.079071  0  1.020381  0
H  H37  1  0.01995035  0.49177446  0.29310272  1  0.069552  0  0.103055  0.07907  0  1.020405  0
H  H38  1  0.51995109  0.29310053  0.49177213  1  0.069697  0  0.103059  0.079055  0  1.02043  0
H  H39  1  0.98005230  0.50822669  0.70689899  1  0.069627  0  0.103064  0.079073  0  1.020438  0
H  H40  1  0.55925122  0.70498934  0.59280231  1  0.033346  0  0.100648  0.073727  0  1.00431  0
H  H41  1  0.94074652  0.40719886  0.29501430  1  0.033273  0  0.100653  0.073716  0  1.004312  0
H  H42  1  0.44074897  0.29500945  0.40720043  1  0.033403  0  0.10064  0.073709  0  1.004335  0
H  H43  1  0.05924780  0.59280602  0.70498860  1  0.046218  0  0.100635  0.073702  0  1.004391  0
H  H44  1  0.60415816  0.79361105  0.36837910  1  0.055239  0  0.091599  0.12974  0  0.992756  0
H  H45  1  0.89584040  0.63161797  0.20639037  1  0.054978  0  0.091622  0.129749  0  0.992743  0
H  H46  1  0.39583938  0.20638848  0.63161992  1  0.054947  0  0.091608  0.129719  0  0.992756  0
H  H47  1  0.10416319  0.36838783  0.79360825  1  0.055094  0  0.091657  0.129808  0  0.992788  0
H  H48  1  0.67992073  0.67476128  0.41349878  1  0.01653  0  0.087428  0.119876  0  1.035818  0
H  H49  1  0.82007933  0.58650183  0.32523651  1  0.016822  0  0.0874  0.119829  0  1.03592  0
H  H50  1  0.32007730  0.32523670  0.58650249  1  0.016834  0  0.087419  0.119855  0  1.03585  0
H  H51  1  0.17992793  0.41350248  0.67476271  1  0.016315  0  0.08739  0.119863  0  1.0359  0
H  H52  1  0.68540348  0.79125505  0.45360394  1  0.041542  0  0.084745  0.123197  0  1.030443  0
H  H53  1  0.81459108  0.54640155  0.20874290  1  0.041478  0  0.084762  0.123189  0  1.030552  0
H  H54  1  0.31459271  0.20874368  0.54639630  1  0.041497  0  0.084732  0.123159  0  1.030568  0
H  H55  1  0.18541282  0.45360580  0.79125395  1  0.041522  0  0.084793  0.123303  0  1.030495  0
H  H56  1  0.58273334  0.86152943  0.62533616  1  0.018363  0  0.1046  0.077756  0  0.995495  0
H  H57  1  0.91727165  0.37466167  0.13847002  1  0.018433  0  0.104647  0.07779  0  0.995514  0
H  H58  1  0.41726801  0.13847325  0.37466132  1  0.01836  0  0.104634  0.077772  0  0.995506  0
H  H59  1  0.08272687  0.62534250  0.86153102  1  0.018357  0  0.104666  0.077812  0  0.9955  0
H  H60  1  0.47660701  0.97563614  0.62436290  1  0.054739  0  0.104353  0.076601  0  0.994662  0
H  H61  1  0.02339717  0.37563343  0.02436326  1  0.054357  0  0.104324  0.076562  0  0.994676  0
H  H62  1  0.52339298  0.02436575  0.37563289  1  0.054542  0  0.104355  0.076646  0  0.994645  0
H  H63  1  0.97660047  0.62436841  0.97563982  1  0.054318  0  0.104348  0.076607  0  0.994659  0
H  H64  1  0.34306604  0.89066498  0.76287321  1  0.032643  0  0.088933  0.121896  0  1.006501  0
H  H65  1  0.15693674  0.23712539  0.10934137  1  0.032578  0  0.088948  0.121931  0  1.00655  0
H  H66  1  0.65693031  0.10933839  0.23712563  1  0.0327  0  0.088879  0.12182  0  1.006506  0
H  H67  1  0.84306083  0.76287412  0.89066350  1  0.032505  0  0.08893  0.121896  0  1.006605  0
H  H68  1  0.45568848  0.90147360  0.80417561  1  0.025603  0  0.09434  0.131109  0  0.984739  0
H  H69  1  0.04431646  0.19582562  0.09853212  1  0.025689  0  0.094288  0.131067  0  0.984828  0
H  H70  1  0.54431002  0.09853058  0.19582323  1  0.025535  0  0.09436  0.131124  0  0.984817  0
H  H71  1  0.95567697  0.80417693  0.90147134  1  0.025687  0  0.094348  0.13114  0  0.984801  0
H  H72  1  0.45770908  0.78120256  0.76637089  1  0.073002  0  0.083328  0.115317  0  1.05259  0
H  H73  1  0.04229547  0.23363069  0.21880266  1  0.073096  0  0.083364  0.115349  0  1.052688  0
H  H74  1  0.54229020  0.21880164  0.23362553  1  0.072901  0  0.083332  0.115289  0  1.05274  0
H  H75  1  0.95769885  0.76637419  0.78120171  1  0.072732  0  0.083325  0.115334  0  1.052581  0
C  C76  1  0.18280125  0.00606303  0.45542991  1  0.017012  0  -0.043546  -0.107458  0  4.100259  0
C  C77  1  0.31719637  0.54457229  0.99393722  1  0.017048  0  -0.043522  -0.107419  0  4.100198  0
C  C78  1  0.81720353  0.99393119  0.54457064  1  0.016977  0  -0.043379  -0.107278  0  4.100056  0
C  C79  1  0.68280390  0.45542882  0.00606519  1  0.01697  0  -0.043582  -0.107538  0  4.10029  0
C  C80  1  0.20570944  0.04339045  0.53753865  1  0.542538  0  0.091123  0.333768  0  4.084782  0
C  C81  1  0.29429118  0.46246178  0.95660918  1  0.542436  0  0.091082  0.333707  0  4.084586  0
C  C82  1  0.79428882  0.95660677  0.46246193  1  0.542363  0  0.09098  0.333552  0  4.084688  0
C  C83  1  0.70570804  0.53754009  0.04339123  1  0.542306  0  0.091118  0.333761  0  4.084609  0
C  C84  1  0.29815925  0.99188381  0.57162905  1  -0.02833  0  -0.119224  -0.329905  0  3.942781  0
C  C85  1  0.20183975  0.42837319  0.00811384  1  -0.028319  0  -0.119204  -0.329916  0  3.942779  0
C  C86  1  0.70183986  0.00810802  0.42836907  1  -0.028243  0  -0.119148  -0.329828  0  3.942688  0
C  C87  1  0.79815932  0.57163176  0.99188620  1  -0.028178  0  -0.119156  -0.329866  0  3.942657  0
C  C88  1  0.37248941  0.90025167  0.52698163  1  0.458983  0  0.11653  0.226133  0  4.061966  0
C  C89  1  0.12750821  0.47301769  0.09974681  1  0.458918  0  0.116635  0.226285  0  4.061756  0
C  C90  1  0.62751216  0.09974251  0.47301472  1  0.458835  0  0.116568  0.226178  0  4.061815  0
C  C91  1  0.87249267  0.52698652  0.90025134  1  0.458854  0  0.116592  0.226268  0  4.061915  0
C  C92  1  0.35097085  0.86356889  0.44374724  1  -0.000986  0  -0.117326  -0.231733  0  3.997656  0
C  C93  1  0.14902671  0.55625308  0.13643188  1  -0.001048  0  -0.117419  -0.231995  0  3.997846  0
C  C94  1  0.64903160  0.13642763  0.55624854  1  -0.001013  0  -0.117386  -0.231909  0  3.997798  0
C  C95  1  0.85097132  0.44375263  0.86356836  1  -0.00105  0  -0.11739  -0.231962  0  3.99786  0
C  C96  1  0.25960434  0.91547954  0.41012449  1  -0.073835  0  -0.080772  -0.065802  0  3.995738  0
C  C97  1  0.24039162  0.58988209  0.08452164  1  -0.073817  0  -0.080757  -0.065764  0  3.995527  0
C  C98  1  0.74039550  0.08451770  0.58987562  1  -0.073715  0  -0.080827  -0.065746  0  3.995654  0
C  C99  1  0.75960697  0.41012440  0.91547834  1  -0.073642  0  -0.080705  -0.065651  0  3.995592  0
C  C100  1  0.08994787  0.05452813  0.41749182  1  0.503102  0  0.06479  0.077045  0  3.94223  0
C  C101  1  0.41005095  0.58250688  0.94547412  1  0.50311  0  0.064767  0.076989  0  3.94225  0
C  C102  1  0.91005507  0.94546684  0.58250697  1  0.50309  0  0.064768  0.076899  0  3.942253  0
C  C103  1  0.58995089  0.41749426  0.05452563  1  0.503081  0  0.064878  0.077077  0  3.942232  0
C  C104  1  0.86168495  0.26018847  0.44725438  1  1.240484  0  0.208084  0.36656  0  4.143813  0
C  C105  1  0.63831904  0.55274247  0.73980987  1  1.240452  0  0.208017  0.366434  0  4.143898  0
C  C106  1  0.13831958  0.73980652  0.55274467  1  1.240123  0  0.208099  0.366526  0  4.143845  0
C  C107  1  0.36168270  0.44725635  0.26018728  1  1.240675  0  0.208028  0.366486  0  4.143929  0
C  C108  1  0.77086052  0.31970307  0.40369709  1  -0.031969  0  0.013547  0.052452  0  3.974703  0
C  C109  1  0.72913213  0.59630493  0.68029859  1  -0.032124  0  0.013498  0.052444  0  3.974739  0
C  C110  1  0.22913830  0.68029493  0.59630323  1  -0.031691  0  0.013545  0.052542  0  3.974601  0
C  C111  1  0.27086676  0.40369539  0.31970066  1  -0.032081  0  0.013479  0.052387  0  3.974767  0
C  C112  1  0.76071431  0.29427684  0.31118856  1  -0.0574  0  -0.077855  -0.155072  0  3.930578  0
C  C113  1  0.73927521  0.68881371  0.70572570  1  -0.057322  0  -0.077778  -0.155049  0  3.930642  0
C  C114  1  0.23928490  0.70572503  0.68881112  1  -0.057338  0  -0.077879  -0.155159  0  3.930377  0
C  C115  1  0.26072424  0.31118739  0.29427328  1  -0.057369  0  -0.077819  -0.15513  0  3.930705  0
C  C116  1  0.67962591  0.35922875  0.26852416  1  0.498282  0  0.040425  0.096738  0  3.970252  0
C  C117  1  0.82036456  0.73147883  0.64077084  1  0.498224  0  0.040434  0.096761  0  3.970421  0
C  C118  1  0.32037307  0.64076616  0.73147725  1  0.498585  0  0.040444  0.096803  0  3.970179  0
C  C119  1  0.17963749  0.26852154  0.35922528  1  0.498416  0  0.040444  0.096898  0  3.970323  0
C  C120  1  0.61729828  0.46867636  0.40140312  1  0.471637  0  0.043522  0.095994  0  3.971184  0
C  C121  1  0.88268941  0.59860005  0.53132665  1  0.471441  0  0.043437  0.09595  0  3.971212  0
C  C122  1  0.38269556  0.53132232  0.59860221  1  0.471575  0  0.04346  0.095934  0  3.971127  0
C  C123  1  0.11730733  0.40139946  0.46867186  1  0.4702  0  0.043456  0.096054  0  3.971114  0
C  C124  1  0.69410320  0.40728621  0.45116446  1  0.002306  0  -0.077968  -0.145239  0  3.893648  0
C  C125  1  0.80589083  0.54884055  0.59271564  1  0.002221  0  -0.077965  -0.145289  0  3.893688  0
C  C126  1  0.30589578  0.59270870  0.54883841  1  0.002298  0  -0.07795  -0.145207  0  3.893438  0
C  C127  1  0.19410837  0.45116132  0.40728184  1  0.002255  0  -0.078002  -0.145358  0  3.893692  0
C  C128  1  0.53146410  0.74819207  0.52698734  1  0.313796  0  -0.062521  -0.011999  0  3.916422  0
C  C129  1  0.96853331  0.47301493  0.25181151  1  0.313978  0  -0.062525  -0.012021  0  3.916368  0
C  C130  1  0.46853632  0.25180595  0.47301470  1  0.31381  0  -0.06248  -0.011951  0  3.916287  0
C  C131  1  0.03146886  0.52698775  0.74819014  1  0.3011  0  -0.062449  -0.011924  0  3.916375  0
C  C132  1  0.63094761  0.75291295  0.43545945  1  -0.065681  0  -0.246716  -0.382373  0  3.923159  0
C  C133  1  0.86904716  0.56454032  0.24708625  1  -0.065411  0  -0.246731  -0.382327  0  3.92329  0
C  C134  1  0.36904802  0.24708500  0.56454032  1  -0.065399  0  -0.246704  -0.382297  0  3.923199  0
C  C135  1  0.13095746  0.43546472  0.75291143  1  -0.065449  0  -0.246836  -0.382605  0  3.923406  0
C  C136  1  0.49244870  0.89193861  0.63898244  1  0.340198  0  -0.060611  -0.012078  0  3.927862  0
C  C137  1  0.00755421  0.36102101  0.10806321  1  0.340597  0  -0.060549  -0.012033  0  3.927669  0
C  C138  1  0.50755131  0.10806327  0.36101628  1  0.340335  0  -0.060673  -0.012238  0  3.927999  0
C  C139  1  0.99244567  0.63898395  0.89193807  1  0.340363  0  -0.060686  -0.012196  0  3.927922  0
C  C140  1  0.43348221  0.86463832  0.74952514  1  -0.09086  0  -0.245688  -0.388771  0  3.945106  0
C  C141  1  0.06652168  0.25047554  0.13536618  1  -0.090935  0  -0.245722  -0.38883  0  3.945224  0
C  C142  1  0.56651549  0.13536585  0.25047321  1  -0.090729  0  -0.245646  -0.388636  0  3.945321  0
C  C143  1  0.93347461  0.74952551  0.86463666  1  -0.090288  0  -0.245674  -0.388794  0  3.945303  0
N  N144  1  0.01177595  0.13740969  0.45526532  1  -0.866555  0  -0.280731  -0.24285  0  3.680406  0
N  N145  1  0.48822307  0.54473357  0.86258951  1  -0.866551  0  -0.280689  -0.242765  0  3.680354  0
N  N146  1  0.98822593  0.86258605  0.54473074  1  -0.86662  0  -0.280724  -0.242766  0  3.680372  0
N  N147  1  0.51177902  0.45526679  0.13741100  1  -0.866565  0  -0.280733  -0.242801  0  3.680314  0
N  N148  1  0.93279128  0.17821616  0.40287466  1  -0.732113  0  -0.239979  -0.291244  0  3.28899  0
N  N149  1  0.56720389  0.59712547  0.82178384  1  -0.731974  0  -0.24002  -0.291275  0  3.288837  0
N  N150  1  0.06720674  0.82178183  0.59712442  1  -0.731947  0  -0.24004  -0.291312  0  3.288813  0
N  N151  1  0.43279683  0.40287411  0.17821498  1  -0.732141  0  -0.240007  -0.291255  0  3.288875  0
N  N152  1  0.61000651  0.44693261  0.31075481  1  -1.233288  0  -0.32864  -0.30664  0  3.486088  0
N  N153  1  0.88998699  0.68924783  0.55306712  1  -1.232973  0  -0.328641  -0.306589  0  3.486018  0
N  N154  1  0.38999145  0.55306305  0.68924973  1  -1.233265  0  -0.328571  -0.306559  0  3.486129  0
N  N155  1  0.11001425  0.31075253  0.44692704  1  -1.231901  0  -0.328631  -0.306625  0  3.486012  0
N  N156  1  0.46191860  0.84947622  0.56222919  1  -1.173659  0  -0.272228  -0.067717  0  3.593067  0
N  N157  1  0.03808187  0.43777201  0.15052746  1  -1.173639  0  -0.272265  -0.067647  0  3.592983  0
N  N158  1  0.53808052  0.15052333  0.43776862  1  -1.173656  0  -0.272224  -0.067632  0  3.592922  0
N  N159  1  0.96192055  0.56222990  0.84947495  1  -1.173638  0  -0.27221  -0.067612  0  3.593067  0
O  O160  1  0.14010499  0.12986167  0.58359989  1  -1.104929  0  -0.359746  -0.521631  0  2.457951  0
O  O161  1  0.35990317  0.41639196  0.87013980  1  -1.104691  0  -0.359743  -0.521569  0  2.457658  0
O  O162  1  0.85989936  0.87013642  0.41639513  1  -1.104766  0  -0.359768  -0.521557  0  2.457735  0
O  O163  1  0.64009971  0.58360842  0.12986048  1  -1.104747  0  -0.359787  -0.521586  0  2.457727  0
O  O164  1  0.87113749  0.29629763  0.52920603  1  -1.092005  0  -0.336012  -0.524079  0  2.376384  0
O  O165  1  0.62886926  0.47078898  0.70371000  1  -1.092025  0  -0.335992  -0.524019  0  2.37655  0
O  O166  1  0.12886421  0.70369886  0.47079804  1  -1.092072  0  -0.335999  -0.524095  0  2.376468  0
O  O167  1  0.37113220  0.52920828  0.29629331  1  -1.092116  0  -0.335992  -0.524045  0  2.376538  0
O  O168  1  0.91781017  0.14534675  0.68486216  1  -0.807327  0  -0.515292  -0.626577  0  1.659115  0
O  O169  1  0.58219059  0.31513439  0.85465788  1  -0.807399  0  -0.515289  -0.626554  0  1.659  0
O  O170  1  0.08219000  0.85465204  0.31513912  1  -0.807277  0  -0.515315  -0.626638  0  1.659054  0
O  O171  1  0.41781483  0.68486294  0.14534207  1  -0.807376  0  -0.515274  -0.626519  0  1.65907  0
O  O172  1  0.98749108  0.32229628  0.65771216  1  -0.847642  0  -0.515485  -0.64573  0  1.754181  0
O  O173  1  0.51251313  0.34228354  0.67770671  1  -0.847629  0  -0.515466  -0.645711  0  1.754229  0
O  O174  1  0.01251467  0.67770259  0.34228969  1  -0.847655  0  -0.515489  -0.645678  0  1.754359  0
O  O175  1  0.48748556  0.65770982  0.32229940  1  -0.847611  0  -0.515461  -0.645692  0  1.754241  0
