# generated using pymatgen
data_Zn2H16C23N11Cl3
_symmetry_space_group_name_H-M   'P 1'
_cell_length_a   14.86433041
_cell_length_b   14.63635786
_cell_length_c   14.98827069
_cell_angle_alpha   112.53343125
_cell_angle_beta   110.34636026
_cell_angle_gamma   103.89984510
_symmetry_Int_Tables_number   1
_chemical_formula_structural   Zn2H16C23N11Cl3
_chemical_formula_sum   'Zn4 H32 C46 N22 Cl6'
_cell_volume   2547.89257685
_cell_formula_units_Z   2
loop_
 _symmetry_equiv_pos_site_id
 _symmetry_equiv_pos_as_xyz
  1  'x, y, z'
loop_
 _atom_site_type_symbol
 _atom_site_label
 _atom_site_symmetry_multiplicity
 _atom_site_fract_x
 _atom_site_fract_y
 _atom_site_fract_z
 _atom_site_occupancy
 _atom_site_pbe_bader_charge
 _atom_site_pbe_bader_spin_density
 _atom_site_pbe_cm5_charge
 _atom_site_pbe_ddec_charge
 _atom_site_pbe_ddec_spin_density
 _atom_site_pbe_ddec_sum_bond_order
 _atom_site_pbe_magmom
Zn  Zn0  1  0.99969840  0.13161566  0.12981853  1  1.198705  0  0.743135  0.628028  0  2.451058  0
Zn  Zn1  1  0.13541546  0.98559412  0.12659689  1  1.193701  0  0.739766  0.635806  0  2.406551  0
Zn  Zn2  1  0.00440387  0.85095725  0.85489651  1  1.185975  0  0.739553  0.62209  0  2.43568  0
Zn  Zn3  1  0.86685361  0.99900450  0.86539780  1  1.179915  0  0.744303  0.606685  0  2.504367  0
H  H4  1  0.17001306  0.35308267  0.18726957  1  0.103003  0  0.12318  0.119508  0  0.980168  0
H  H5  1  0.46597206  0.41981949  0.19811759  1  0.056997  0  0.101671  0.121155  0  0.99302  0
H  H6  1  0.94895090  0.04801338  0.44284944  1  0.05666  0  0.095194  0.109063  0  1.00951  0
H  H7  1  0.50232483  0.72789093  0.82853054  1  0.044487  0  0.092346  0.09383  0  1.025461  0
H  H8  1  0.33158311  0.70483924  0.82456343  1  0.031008  0  0.097657  0.09724  0  1.00305  0
H  H9  1  0.49774284  0.94970612  0.17215770  1  0.056455  0  0.09402  0.093739  0  1.011235  0
H  H10  1  0.66787720  0.97123261  0.17693620  1  0.03233  0  0.095466  0.094096  0  1.012898  0
H  H11  1  0.20596030  0.02002023  0.38720537  1  0.090564  0  0.121406  0.115496  0  0.983645  0
H  H12  1  0.16385810  0.97775314  0.79994867  1  0.095401  0  0.117793  0.11068  0  0.994692  0
H  H13  1  0.65578071  0.83562137  0.61954475  1  0.078986  0  0.119599  0.113374  0  0.984639  0
H  H14  1  0.33351289  0.91801722  0.16692050  1  0.087526  0  0.11241  0.099677  0  1.007288  0
H  H15  1  0.82785115  0.00834250  0.17981135  1  0.088341  0  0.108925  0.094067  0  1.029286  0
H  H16  1  0.19114442  0.77134025  0.81131206  1  0.074004  0  0.115807  0.102987  0  1.002318  0
H  H17  1  0.65633187  0.81614172  0.82035347  1  0.098911  0  0.10604  0.094463  0  1.049958  0
H  H18  1  0.94189702  0.34642890  0.18620468  1  0.130406  0  0.105375  0.095193  0  1.046788  0
H  H19  1  0.97645286  0.84876134  0.17789570  1  0.117815  0  0.112042  0.10432  0  1.017578  0
H  H20  1  0.99457900  0.18006865  0.84082148  1  0.099147  0  0.117099  0.110165  0  0.994273  0
H  H21  1  0.82157523  0.62969930  0.60574440  1  0.066018  0  0.115482  0.105223  0  0.995408  0
H  H22  1  0.85379749  0.97521563  0.51537358  1  0.405773  0  0.296712  0.292666  0  0.9454  0
H  H23  1  0.90952711  0.99559510  0.64384228  1  0.413541  0  0.281265  0.27103  0  1.014981  0
H  H24  1  0.72506429  0.65030302  0.40548844  1  0.435033  0  0.287284  0.276961  0  0.993738  0
H  H25  1  0.64795255  0.55084948  0.27051105  1  0.452598  0  0.297852  0.295438  0  0.956648  0
H  H26  1  0.31552458  0.21688169  0.57380771  1  0.430069  0  0.291431  0.285091  0  0.98046  0
H  H27  1  0.88948857  0.53714665  0.97175200  1  0.042712  0  0.098066  0.098634  0  1.022737  0
H  H28  1  0.37662044  0.24303091  0.70669350  1  0.429263  0  0.285719  0.282748  0  0.991441  0
H  H29  1  0.37508781  0.43581927  0.52251878  1  0.445708  0  0.281768  0.278322  0  0.999009  0
H  H30  1  0.29361698  0.33714324  0.38603591  1  0.455251  0  0.288561  0.287773  0  0.981854  0
H  H31  1  0.77505232  0.13079827  0.75096122  1  0.432537  0  0.303685  0.297334  0  0.955009  0
H  H32  1  0.72202749  0.21870749  0.78838451  1  0.428139  0  0.304624  0.299823  0  0.950956  0
H  H33  1  0.89651256  0.60077917  0.77052565  1  0.411223  0  0.304782  0.293617  0  0.951493  0
H  H34  1  0.77577965  0.38141194  0.92973260  1  0.047905  0  0.096276  0.093705  0  1.02576  0
H  H35  1  0.82103325  0.53041298  0.80465455  1  0.440784  0  0.304424  0.296502  0  0.953024  0
C  C36  1  0.20189307  0.29280809  0.18096921  1  0.470038  0  0.012284  -0.03837  0  3.958286  0
C  C37  1  0.69923503  0.88941119  0.00086284  1  0.051219  0  -0.035737  -0.038423  0  4.065461  0
C  C38  1  0.30266008  0.83483065  0.99094427  1  0.03971  0  -0.039222  -0.039261  0  4.093859  0
C  C39  1  0.83660305  0.29861331  0.00978216  1  0.015092  0  -0.054196  -0.09107  0  4.104005  0
C  C40  1  0.89878994  0.69650067  0.00967544  1  0.012188  0  -0.053303  -0.09359  0  4.10093  0
C  C41  1  0.84024493  0.58147263  0.08837973  1  0.016028  0  -0.012985  0.061312  0  4.088338  0
C  C42  1  0.83370442  0.48391054  0.09638923  1  0.043983  0  -0.015264  0.058211  0  4.065265  0
C  C43  1  0.16216312  0.06612562  0.36909173  1  0.39709  0  0.004725  -0.06383  0  4.008348  0
C  C44  1  0.87274129  0.60153846  0.02074978  1  0.076536  0  -0.103739  -0.16622  0  4.050205  0
C  C45  1  0.81114049  0.38716144  0.01023937  1  0.022849  0  -0.109839  -0.17439  0  4.073155  0
C  C46  1  0.01154210  0.07812412  0.60925958  1  0.337612  0  0.072629  0.237922  0  4.101208  0
C  C47  1  0.57778930  0.55109839  0.36702879  1  0.413273  0  0.075663  0.243262  0  4.124374  0
C  C48  1  0.02075148  0.08433984  0.52193781  1  -0.058374  0  -0.116741  -0.255982  0  4.032152  0
C  C49  1  0.48191637  0.45783377  0.28374717  1  -0.004176  0  -0.111331  -0.249145  0  3.998626  0
C  C50  1  0.11915106  0.13063313  0.53003647  1  0.080517  0  -0.028751  0.003222  0  4.063832  0
C  C51  1  0.40592415  0.41189301  0.30724664  1  0.001947  0  -0.025188  0.009494  0  4.050829  0
C  C52  1  0.21410775  0.17793684  0.63076155  1  0.482968  0  0.072605  0.17136  0  4.116949  0
C  C53  1  0.42337467  0.45854777  0.41749665  1  0.506786  0  0.069784  0.164296  0  4.119742  0
C  C54  1  0.20404990  0.16960802  0.71779619  1  0.031954  0  -0.004007  0.004044  0  4.016562  0
C  C55  1  0.52055521  0.55008873  0.49993383  1  0.001394  0  -0.005174  -0.000144  0  4.0192  0
C  C56  1  0.11617696  0.01972782  0.81928385  1  0.40807  0  0.007543  -0.052489  0  3.955074  0
C  C57  1  0.71280480  0.80087031  0.63182855  1  0.433073  0  0.00421  -0.061718  0  3.997961  0
C  C58  1  0.10581213  0.11976386  0.70940256  1  0.066437  0  -0.026992  -0.072156  0  4.012704  0
C  C59  1  0.09353433  0.09699174  0.79306115  1  0.027657  0  -0.040086  -0.015924  0  4.077809  0
C  C60  1  0.59794458  0.59759984  0.47772619  1  0.035752  0  -0.032422  -0.085323  0  4.024488  0
C  C61  1  0.50220622  0.77675582  0.90471036  1  -0.050754  0  -0.097045  -0.131525  0  3.991655  0
C  C62  1  0.40537895  0.76407926  0.90224981  1  -0.022301  0  -0.097966  -0.134478  0  4.00517  0
C  C63  1  0.40112552  0.82911129  0.99689344  1  0.019806  0  -0.016643  0.078071  0  4.056264  0
C  C64  1  0.59912193  0.85504455  0.00214194  1  -0.03896  0  -0.012292  0.082891  0  4.047985  0
C  C65  1  0.69801708  0.69328593  0.56976532  1  -0.007175  0  -0.040435  -0.011391  0  4.100893  0
C  C66  1  0.49796646  0.89897788  0.09672279  1  -0.093963  0  -0.098882  -0.134511  0  4.015319  0
C  C67  1  0.59448844  0.91128537  0.09931281  1  0.01722  0  -0.098944  -0.132689  0  4.013228  0
C  C68  1  0.28344947  0.88397533  0.07886675  1  0.386724  0  0.000848  -0.057271  0  4.019822  0
C  C69  1  0.80049607  0.96853492  0.09145635  1  0.392898  0  0.006458  -0.046349  0  3.964831  0
C  C70  1  0.81270562  0.20259223  0.91362849  1  0.940975  0  0.195525  0.338109  0  4.105163  0
C  C71  1  0.89881583  0.69362623  0.91394814  1  0.939051  0  0.197844  0.346495  0  4.078787  0
C  C72  1  0.21068716  0.80883825  0.89772318  1  0.413608  0  0.002006  -0.059245  0  4.006112  0
C  C73  1  0.71319372  0.86991572  0.90816458  1  0.38356  0  0.00808  -0.039269  0  3.937093  0
C  C74  1  0.90380374  0.29073818  0.09760934  1  0.423564  0  0.007582  -0.038065  0  4.01648  0
C  C75  1  0.95473644  0.80895870  0.09095400  1  0.429745  0  0.009851  -0.029981  0  3.977382  0
C  C76  1  0.02978127  0.12294757  0.84002405  1  0.369135  0  0.004282  -0.056766  0  3.969103  0
C  C77  1  0.79755000  0.69614161  0.62502237  1  0.462522  0  0.003951  -0.060809  0  4.009326  0
C  C78  1  0.29958805  0.20214520  0.19067736  1  0.553824  0  0.103572  0.16519  0  4.096786  0
C  C79  1  0.06982820  0.16220376  0.36424717  1  0.531301  0  0.102278  0.161012  0  4.116026  0
C  C80  1  0.30845015  0.30917042  0.22394294  1  -0.024909  0  -0.037689  -0.084018  0  4.057909  0
C  C81  1  0.12089334  0.12404151  0.43030880  1  0.026005  0  -0.037998  -0.078578  0  4.073586  0
N  N82  1  0.13653797  0.18529121  0.12784971  1  -0.78858  0  -0.28052  -0.172445  0  3.609534  0
N  N83  1  0.86750064  0.99451056  0.05453088  1  -0.751098  0  -0.284545  -0.183243  0  3.652411  0
N  N84  1  0.18878520  0.88779279  0.04143877  1  -0.797334  0  -0.27683  -0.181914  0  3.55543  0
N  N85  1  0.86163947  0.14460578  0.94315481  1  -0.842716  0  -0.284025  -0.281167  0  3.459426  0
N  N86  1  0.94913895  0.79611064  0.93740890  1  -0.813868  0  -0.294031  -0.285253  0  3.537941  0
N  N87  1  0.14322268  0.84065131  0.92817205  1  -0.793075  0  -0.275853  -0.185885  0  3.564317  0
N  N88  1  0.81416755  0.93396649  0.94195629  1  -0.831461  0  -0.286833  -0.176252  0  3.614945  0
N  N89  1  0.13698918  0.06974600  0.27530442  1  -0.798905  0  -0.266792  -0.170042  0  3.531097  0
N  N90  1  0.91930969  0.20086726  0.05805169  1  -0.797374  0  -0.277598  -0.172018  0  3.570748  0
N  N91  1  0.98715378  0.86699861  0.04796162  1  -0.804512  0  -0.291133  -0.200446  0  3.629978  0
N  N92  1  0.01318711  0.06293696  0.88713693  1  -0.756284  0  -0.289931  -0.195624  0  3.633576  0
N  N93  1  0.86598494  0.79706676  0.71377246  1  -0.795251  0  -0.273366  -0.186091  0  3.534198  0
N  N94  1  0.19674656  0.12843096  0.13332291  1  -0.763736  0  -0.281885  -0.243558  0  3.565404  0
N  N95  1  0.07937471  0.13007486  0.27245225  1  -0.742447  0  -0.272902  -0.238197  0  3.522492  0
N  N96  1  0.91027788  0.02952394  0.59593726  1  -1.182099  0  -0.616709  -0.637666  0  3.295245  0
N  N97  1  0.64984171  0.60047010  0.34116781  1  -1.241355  0  -0.60985  -0.632101  0  3.325888  0
N  N98  1  0.31219956  0.23417353  0.64455007  1  -1.205915  0  -0.611631  -0.618455  0  3.36139  0
N  N99  1  0.34733237  0.41632913  0.44241059  1  -1.260606  0  -0.614347  -0.622446  0  3.360489  0
N  N100  1  0.74788944  0.16506795  0.80282558  1  -1.214422  0  -0.597645  -0.639954  0  3.285353  0
N  N101  1  0.85214502  0.60275228  0.80908175  1  -1.209717  0  -0.592627  -0.628651  0  3.304635  0
N  N102  1  0.06642191  0.99945357  0.87439705  1  -0.812898  0  -0.28446  -0.18112  0  3.60781  0
N  N103  1  0.81286191  0.86262106  0.71776011  1  -0.825144  0  -0.279952  -0.185545  0  3.552549  0
Cl  Cl104  1  0.32032448  0.22263903  0.84068586  1  -0.238728  0  -0.025408  -0.09406  0  1.490763  0
Cl  Cl105  1  0.87619351  0.50382742  0.22935210  1  -0.238796  0  -0.036371  -0.101516  0  1.513564  0
Cl  Cl106  1  0.81196366  0.67594364  0.17384988  1  -0.225184  0  -0.035077  -0.091804  0  1.49532  0
Cl  Cl107  1  0.54686985  0.60182262  0.63686910  1  -0.253061  0  -0.010493  -0.089744  0  1.583323  0
Cl  Cl108  1  0.40132155  0.16416399  0.21963590  1  -0.20993  0  -0.000337  -0.077222  0  1.516755  0
Cl  Cl109  1  0.00096300  0.23906953  0.38631950  1  -0.203889  0  0.001585  -0.076017  0  1.477454  0
