# generated using pymatgen
data_AlH15(C9O4)3
_symmetry_space_group_name_H-M   'P 1'
_cell_length_a   4.03237807
_cell_length_b   16.00279962
_cell_length_c   16.00511162
_cell_angle_alpha   119.81287803
_cell_angle_beta   90.54689445
_cell_angle_gamma   90.55505873
_symmetry_Int_Tables_number   1
_chemical_formula_structural   AlH15(C9O4)3
_chemical_formula_sum   'Al1 H15 C27 O12'
_cell_volume   895.94731772
_cell_formula_units_Z   1
loop_
 _symmetry_equiv_pos_site_id
 _symmetry_equiv_pos_as_xyz
  1  'x, y, z'
loop_
 _atom_site_type_symbol
 _atom_site_label
 _atom_site_symmetry_multiplicity
 _atom_site_fract_x
 _atom_site_fract_y
 _atom_site_fract_z
 _atom_site_occupancy
 _atom_site_pbe_bader_charge
 _atom_site_pbe_bader_spin_density
 _atom_site_pbe_cm5_charge
 _atom_site_pbe_ddec_charge
 _atom_site_pbe_ddec_spin_density
 _atom_site_pbe_ddec_sum_bond_order
 _atom_site_pbe_magmom
Al  Al0  1  0.00006893  0.50134033  0.49859846  1  2.503474  0  0.429317  1.590906  0  2.566574  0
H  H1  1  0.49996387  0.92335873  0.07652973  1  0.059954  0  0.104268  0.105562  0  1.014096  0
H  H2  1  0.50968488  0.65488431  0.07680600  1  0.074916  0  0.103766  0.104517  0  1.016652  0
H  H3  1  0.49007462  0.92300854  0.34490969  1  0.077943  0  0.103999  0.104884  0  1.016668  0
H  H4  1  0.79955085  0.05795493  0.16902682  1  0.06338  0  0.110072  0.133454  0  0.99066  0
H  H5  1  0.16603142  0.05227404  0.38388125  1  0.056191  0  0.11036  0.133283  0  0.989786  0
H  H6  1  0.20031039  0.83087429  0.94196178  1  0.063791  0  0.11015  0.133584  0  0.990642  0
H  H7  1  0.83392045  0.61599428  0.94758275  1  0.057148  0  0.110383  0.133459  0  0.98969  0
H  H8  1  0.80729633  0.61345920  0.16740607  1  0.083353  0  0.110935  0.13655  0  0.98984  0
H  H9  1  0.19237871  0.83243806  0.38635079  1  0.085979  0  0.110989  0.136282  0  0.989887  0
H  H10  1  0.01939022  0.29346189  0.49636855  1  0.622012  0  0.311437  0.350104  0  0.939157  0
H  H11  1  0.96331975  0.29712552  0.30162647  1  0.602595  0  0.308504  0.346725  0  0.952785  0
H  H12  1  0.03683594  0.69833717  0.70280631  1  0.602275  0  0.308553  0.346748  0  0.952529  0
H  H13  1  0.98074345  0.50357156  0.70642760  1  0.620929  0  0.31121  0.34958  0  0.939389  0
H  H14  1  0.84627622  0.48654261  0.29204344  1  0.65347  0  0.317503  0.359808  0  0.940375  0
H  H15  1  0.15385517  0.70790439  0.51337719  1  0.657939  0  0.317556  0.360173  0  0.939866  0
C  C16  1  0.51083054  0.57424402  0.64986584  1  1.525053  0  0.281508  0.698805  0  4.038202  0
C  C17  1  0.50007492  0.57563226  0.42431356  1  1.388174  0  0.253815  0.650262  0  4.05753  0
C  C18  1  0.48930206  0.35006010  0.42570308  1  1.527507  0  0.281212  0.698564  0  4.038516  0
C  C19  1  0.51139867  0.78313898  0.06463290  1  0.066733  0  -0.003787  0.079854  0  4.009163  0
C  C20  1  0.49991880  0.88396567  0.11590500  1  -0.152412  0  -0.081072  -0.165109  0  3.908958  0
C  C21  1  0.48844694  0.93523507  0.21671826  1  0.065211  0  -0.003524  0.08003  0  4.009652  0
C  C22  1  0.48757851  0.88370778  0.26637868  1  -0.058957  0  -0.083751  -0.170042  0  3.916762  0
C  C23  1  0.49978000  0.78281110  0.21699643  1  -0.02662  0  -0.006347  0.073155  0  4.010366  0
C  C24  1  0.51209718  0.73343518  0.11612563  1  -0.060806  0  -0.083512  -0.16972  0  3.915783  0
C  C25  1  0.66233780  0.19402649  0.28588038  1  0.472652  0  0.083411  0.32785  0  4.089181  0
C  C26  1  0.65324282  0.09385918  0.23403912  1  0.109502  0  -0.105713  -0.266275  0  3.94881  0
C  C27  1  0.48362112  0.04167539  0.26982608  1  -0.009667  0  -0.001897  0.109593  0  4.037871  0
C  C28  1  0.31234559  0.09072765  0.35648643  1  0.104227  0  -0.105525  -0.263694  0  3.942599  0
C  C29  1  0.30405908  0.19096214  0.40626411  1  0.491655  0  0.084188  0.326647  0  4.090253  0
C  C30  1  0.48449917  0.24325646  0.37196751  1  -0.063447  0  -0.057093  -0.352771  0  4.027441  0
C  C31  1  0.34678047  0.76589042  0.90604974  1  0.109974  0  -0.105742  -0.266693  0  3.947873  0
C  C32  1  0.33774062  0.71406371  0.80589540  1  0.471726  0  0.083456  0.328219  0  4.088712  0
C  C33  1  0.51561750  0.62798287  0.75666292  1  -0.061782  0  -0.057252  -0.352749  0  4.027339  0
C  C34  1  0.69606730  0.59366613  0.80892204  1  0.587027  0  0.08464  0.327029  0  4.090057  0
C  C35  1  0.68768839  0.64341728  0.90914725  1  0.00764  0  -0.105516  -0.263768  0  3.941739  0
C  C36  1  0.51636935  0.73008256  0.95821634  1  -0.012452  0  -0.002028  0.109376  0  4.036868  0
C  C37  1  0.66622426  0.64197796  0.23338497  1  0.059558  0  -0.113262  -0.291146  0  3.945507  0
C  C38  1  0.67510048  0.59228813  0.28395568  1  0.470275  0  0.101807  0.359581  0  4.04693  0
C  C39  1  0.49996918  0.62734051  0.37256041  1  0.067152  0  -0.053889  -0.353642  0  3.991387  0
C  C40  1  0.32476552  0.71593253  0.40757906  1  0.470917  0  0.101696  0.35949  0  4.046999  0
C  C41  1  0.33345776  0.76646804  0.35785935  1  0.058156  0  -0.113139  -0.290248  0  3.945808  0
C  C42  1  0.49978394  0.72954609  0.27029684  1  -0.039612  0  0.011339  0.139705  0  4.026696  0
O  O43  1  0.25177189  0.39327748  0.40962273  1  -1.257599  0  -0.229094  -0.596754  0  2.374707  0
O  O44  1  0.27002409  0.51517854  0.60610390  1  -1.258569  0  -0.230557  -0.596054  0  2.361212  0
O  O45  1  0.27498700  0.59323200  0.48893005  1  -1.279631  0  -0.252776  -0.636234  0  2.39326  0
O  O46  1  0.73009956  0.39382698  0.48475000  1  -1.258048  0  -0.230559  -0.596089  0  2.361529  0
O  O47  1  0.72523320  0.51103760  0.40673197  1  -1.280489  0  -0.252736  -0.636008  0  2.392526  0
O  O48  1  0.74838257  0.59031971  0.60665186  1  -1.256853  0  -0.229133  -0.596867  0  2.374715  0
O  O49  1  0.12498595  0.23530073  0.48915241  1  -1.146488  0  -0.360212  -0.44218  0  2.238858  0
O  O50  1  0.84001714  0.24225375  0.24981836  1  -1.127453  0  -0.366604  -0.450723  0  2.238211  0
O  O51  1  0.16003229  0.75013642  0.75770532  1  -1.126682  0  -0.366658  -0.450792  0  2.238249  0
O  O52  1  0.87514162  0.51077750  0.76458855  1  -1.145878  0  -0.360297  -0.441986  0  2.239229  0
O  O53  1  0.84682503  0.50970014  0.24519717  1  -1.15549  0  -0.342185  -0.421845  0  2.251793  0
O  O54  1  0.15318111  0.75472812  0.49018569  1  -1.159553  0  -0.342211  -0.422391  0  2.251131  0
