# generated using pymatgen
data_AlH17C18(NO3)3
_symmetry_space_group_name_H-M   'P 1'
_cell_length_a   6.74456549
_cell_length_b   18.99202117
_cell_length_c   20.42227536
_cell_angle_alpha   99.56273871
_cell_angle_beta   90.17164494
_cell_angle_gamma   93.68452759
_symmetry_Int_Tables_number   1
_chemical_formula_structural   AlH17C18(NO3)3
_chemical_formula_sum   'Al4 H68 C72 N12 O36'
_cell_volume   2574.01815583
_cell_formula_units_Z   4
loop_
 _symmetry_equiv_pos_site_id
 _symmetry_equiv_pos_as_xyz
  1  'x, y, z'
loop_
 _atom_site_type_symbol
 _atom_site_label
 _atom_site_symmetry_multiplicity
 _atom_site_fract_x
 _atom_site_fract_y
 _atom_site_fract_z
 _atom_site_occupancy
 _atom_site_pbe_bader_charge
 _atom_site_pbe_bader_spin_density
 _atom_site_pbe_cm5_charge
 _atom_site_pbe_ddec_charge
 _atom_site_pbe_ddec_spin_density
 _atom_site_pbe_ddec_sum_bond_order
 _atom_site_pbe_magmom
Al  Al0  1  0.71390428  0.75355881  0.74893313  1  2.504275  0  0.413051  1.636935  0  2.533174  0
Al  Al1  1  0.26278150  0.25446818  0.24665151  1  2.501654  0  0.399475  1.636724  0  2.55387  0
Al  Al2  1  0.21290177  0.75157860  0.74626085  1  2.499902  0  0.403065  1.638174  0  2.547036  0
Al  Al3  1  0.76142612  0.24937756  0.23926047  1  2.499034  0  0.402036  1.636697  0  2.549777  0
H  H4  1  0.77720578  0.46910029  0.91559733  1  0.102021  0  0.105554  0.106945  0  1.063989  0
H  H5  1  0.27450732  0.53031169  0.06599606  1  0.088319  0  0.097742  0.09725  0  1.078426  0
H  H6  1  0.28090600  0.02561551  0.56834613  1  0.062984  0  0.102003  0.095429  0  1.103387  0
H  H7  1  0.79804713  0.00994238  0.44285304  1  0.12075  0  0.106185  0.103317  0  1.08905  0
H  H8  1  0.19607892  0.69312863  0.93651091  1  0.048118  0  0.106855  0.11298  0  0.998682  0
H  H9  1  0.75518826  0.34125077  0.07911575  1  0.072483  0  0.107346  0.114426  0  1.03257  0
H  H10  1  0.70649706  0.82752643  0.56489554  1  0.095293  0  0.114172  0.124158  0  1.01201  0
H  H11  1  0.20118505  0.11532388  0.37865483  1  0.097879  0  0.115839  0.117745  0  1.090053  0
H  H12  1  0.63661805  0.49955332  0.81687957  1  0.42641  0  0.285834  0.237962  0  0.975204  0
H  H13  1  0.39704439  0.55920290  0.88057798  1  -0.000914  0  0.079696  0.075421  0  1.02596  0
H  H14  1  0.42952239  0.61549842  0.81785800  1  0.08276  0  0.098022  0.107714  0  1.050694  0
H  H15  1  0.55631803  0.63829117  0.89370429  1  0.050746  0  0.101142  0.118426  0  0.999485  0
H  H16  1  0.38851241  0.51679254  0.16152249  1  0.421769  0  0.300561  0.244522  0  0.95399  0
H  H17  1  0.63639515  0.44749190  0.16850975  1  0.033679  0  0.088743  0.085486  0  1.035399  0
H  H18  1  0.47706708  0.36884377  0.14797094  1  0.073439  0  0.101398  0.109726  0  1.040432  0
H  H19  1  0.48936434  0.41340764  0.23016075  1  0.018456  0  0.089497  0.08962  0  1.042823  0
H  H20  1  0.18532463  0.01358783  0.66650736  1  0.370824  0  0.31146  0.249796  0  0.910191  0
H  H21  1  0.96028048  0.93271351  0.59170244  1  0.033388  0  0.082115  0.080533  0  1.04246  0
H  H22  1  0.88925512  0.94269748  0.67720336  1  0.080401  0  0.113066  0.13723  0  0.967553  0
H  H23  1  0.00953744  0.86566049  0.64141196  1  0.071747  0  0.111071  0.136404  0  1.00159  0
H  H24  1  0.96786325  0.07989552  0.39833895  1  0.441735  0  0.28883  0.219929  0  1.033623  0
H  H25  1  0.92124974  0.19804396  0.45648223  1  -0.019059  0  0.086053  0.083665  0  1.033956  0
H  H26  1  0.81860289  0.21965385  0.38312394  1  0.107647  0  0.110836  0.128278  0  1.043866  0
H  H27  1  0.07111754  0.20313308  0.38434400  1  0.060486  0  0.103983  0.11941  0  1.039731  0
H  H28  1  0.31132102  0.67707009  0.03037861  1  0.41986  0  0.300935  0.243757  0  0.947926  0
H  H29  1  0.25210856  0.67865434  0.14242265  1  0.043777  0  0.101848  0.109815  0  0.979116  0
H  H30  1  0.07203487  0.60545638  0.12422567  1  0.063102  0  0.096811  0.109311  0  1.023434  0
H  H31  1  0.01685406  0.69077653  0.10654584  1  -0.006767  0  0.086282  0.084304  0  1.037064  0
H  H32  1  0.59977440  0.47146843  0.99006436  1  0.435227  0  0.306691  0.249143  0  0.956698  0
H  H33  1  0.38967475  0.37088041  0.96262769  1  0.071354  0  0.10763  0.119128  0  0.975374  0
H  H34  1  0.44604451  0.36236877  0.04569464  1  0.044092  0  0.086833  0.080881  0  1.054951  0
H  H35  1  0.57999755  0.31485357  0.97840941  1  0.038268  0  0.102382  0.109181  0  0.98035  0
H  H36  1  0.82260932  0.84275476  0.47029528  1  0.406043  0  0.302018  0.239497  0  0.960584  0
H  H37  1  0.80349460  0.83977478  0.35969708  1  0.067556  0  0.108695  0.119073  0  0.971434  0
H  H38  1  0.66209313  0.91591840  0.36718732  1  0.107784  0  0.099976  0.117661  0  1.02098  0
H  H39  1  0.54629261  0.83225270  0.38011209  1  0.045316  0  0.093247  0.095508  0  0.986877  0
H  H40  1  0.10075238  0.98788251  0.48405016  1  0.406483  0  0.291018  0.229245  0  0.985625  0
H  H41  1  0.91102408  0.08156169  0.53809696  1  0.060462  0  0.104111  0.118639  0  0.986135  0
H  H42  1  0.06968661  0.14485336  0.50499551  1  0.061706  0  0.10381  0.113459  0  1.029525  0
H  H43  1  0.16073898  0.10246398  0.56815557  1  0.018468  0  0.087393  0.083427  0  1.020505  0
H  H44  1  0.90704289  0.77123919  0.95346141  1  0.630124  0  0.324081  0.351843  0  0.916297  0
H  H45  1  0.34205892  0.22983800  0.04487743  1  0.616505  0  0.344548  0.378962  0  0.859099  0
H  H46  1  0.41365018  0.75896322  0.54023121  1  0.612244  0  0.3255  0.355848  0  0.899016  0
H  H47  1  0.41281117  0.23626632  0.43754298  1  0.615356  0  0.331626  0.362454  0  0.898752  0
H  H48  1  0.18720060  0.95361687  0.73633936  1  0.624537  0  0.296132  0.305214  0  1.038629  0
H  H49  1  0.90798929  0.07427294  0.29140508  1  0.644084  0  0.303957  0.329042  0  0.987043  0
H  H50  1  0.26995729  0.53290248  0.76565912  1  0.608502  0  0.34429  0.383094  0  0.863557  0
H  H51  1  0.91029933  0.47050583  0.25362158  1  0.606433  0  0.345079  0.382685  0  0.857416  0
H  H52  1  0.72757301  0.89895955  0.14117649  1  0.483966  0  0.297149  0.258708  0  0.985985  0
H  H53  1  0.82785774  0.77658907  0.08568549  1  0.060003  0  0.095107  0.101206  0  1.007236  0
H  H54  1  0.00120521  0.82833861  0.14428923  1  0.040645  0  0.09355  0.094083  0  0.988305  0
H  H55  1  0.03647982  0.82563315  0.05793658  1  0.033865  0  0.09964  0.101452  0  1.014152  0
H  H56  1  0.45948647  0.04867656  0.90708281  1  0.495219  0  0.300734  0.261938  0  0.988768  0
H  H57  1  0.65616801  0.10562990  0.00312087  1  0.062477  0  0.100049  0.118369  0  0.988781  0
H  H58  1  0.63441786  0.01009913  0.99646287  1  0.073204  0  0.090645  0.100602  0  1.034464  0
H  H59  1  0.48955213  0.06466316  0.05483234  1  0.04012  0  0.098638  0.109241  0  1.014949  0
H  H60  1  0.61191544  0.61575740  0.36401587  1  0.45457  0  0.299069  0.257351  0  0.985833  0
H  H61  1  0.76627676  0.71556037  0.44450859  1  -0.006503  0  0.090395  0.092355  0  1.013814  0
H  H62  1  0.92497603  0.64341420  0.42190522  1  0.079655  0  0.095934  0.116106  0  0.994204  0
H  H63  1  0.79834478  0.65266877  0.49847028  1  0.065752  0  0.102292  0.119194  0  1.00253  0
H  H64  1  0.59806107  0.39990150  0.64635710  1  0.483976  0  0.305802  0.264296  0  0.999188  0
H  H65  1  0.68673843  0.29594912  0.54737475  1  0.068505  0  0.095985  0.100806  0  1.004337  0
H  H66  1  0.87947097  0.34944137  0.59550913  1  0.074141  0  0.111121  0.124064  0  0.962825  0
H  H67  1  0.80940161  0.36980785  0.51739611  1  0.075194  0  0.110311  0.126873  0  0.992207  0
H  H68  1  0.46562106  0.78714592  0.83140006  1  0.640629  0  0.351513  0.436765  0  0.849658  0
H  H69  1  0.48744161  0.21674495  0.16001296  1  0.616542  0  0.341196  0.422052  0  0.883369  0
H  H70  1  0.95060245  0.71231900  0.66536405  1  0.621077  0  0.349994  0.427535  0  0.856692  0
H  H71  1  0.00598440  0.30123376  0.32026564  1  0.614041  0  0.347007  0.420774  0  0.865521  0
C  C72  1  0.44509303  0.64766331  0.66131920  1  1.626925  0  0.27222  0.659765  0  4.079541  0
C  C73  1  0.53597146  0.35314706  0.33283820  1  1.624883  0  0.270373  0.648419  0  4.108105  0
C  C74  1  0.97801565  0.85122708  0.83898265  1  1.601466  0  0.268731  0.651749  0  4.097008  0
C  C75  1  0.00389897  0.14571807  0.16400574  1  1.612263  0  0.273242  0.668801  0  4.1055  0
C  C76  1  0.47226303  0.83788372  0.67030919  1  1.599739  0  0.26826  0.644004  0  4.08688  0
C  C77  1  0.50620378  0.16438040  0.31872150  1  1.549353  0  0.261595  0.636736  0  4.085739  0
C  C78  1  0.96327020  0.67026150  0.82529385  1  1.584502  0  0.267661  0.649733  0  4.088776  0
C  C79  1  0.02582317  0.33756952  0.16666277  1  1.526364  0  0.259762  0.645372  0  4.085993  0
C  C80  1  0.86215124  0.52047068  0.92331607  1  -0.103635  0  -0.107864  -0.240788  0  3.997193  0
C  C81  1  0.15529334  0.48964988  0.06982334  1  -0.03457  0  -0.115085  -0.254464  0  4.029771  0
C  C82  1  0.36695843  0.97890837  0.56388406  1  -0.08968  0  -0.105515  -0.244774  0  4.044087  0
C  C83  1  0.66254108  0.03317324  0.43022669  1  -0.062355  0  -0.098887  -0.231236  0  3.988676  0
C  C84  1  0.83514471  0.56512804  0.87676138  1  0.435865  0  0.082041  0.200741  0  4.078146  0
C  C85  1  0.18031530  0.44525304  0.11756742  1  0.340142  0  0.080406  0.183169  0  4.102975  0
C  C86  1  0.34947371  0.94006143  0.61566480  1  0.367263  0  0.080323  0.192834  0  4.007601  0
C  C87  1  0.68183069  0.08650141  0.39059173  1  0.378017  0  0.098673  0.219485  0  4.002904  0
C  C88  1  0.96391174  0.62681701  0.87994841  1  -0.050752  0  -0.019838  -0.11051  0  3.98673  0
C  C89  1  0.03255259  0.38869158  0.11863420  1  0.026353  0  -0.034418  -0.151085  0  3.994544  0
C  C90  1  0.47627381  0.88430170  0.61697049  1  -0.025511  0  -0.010674  -0.098384  0  3.931298  0
C  C91  1  0.50975048  0.11507139  0.36914418  1  0.011456  0  -0.023008  -0.129371  0  3.958193  0
C  C92  1  0.09462493  0.64535617  0.93415039  1  -0.014322  0  -0.10277  -0.220698  0  4.021594  0
C  C93  1  0.86822437  0.38372804  0.07537148  1  -0.03872  0  -0.103804  -0.198439  0  4.013008  0
C  C94  1  0.60651207  0.87024897  0.56374847  1  -0.042891  0  -0.098239  -0.227151  0  4.013904  0
C  C95  1  0.33128053  0.09383183  0.39663871  1  -0.052176  0  -0.095556  -0.192873  0  3.998194  0
C  C96  1  0.09934216  0.60610197  0.98673012  1  0.369552  0  0.08348  0.165177  0  3.995684  0
C  C97  1  0.83512059  0.43223531  0.03262192  1  0.371126  0  0.085662  0.163791  0  4.028915  0
C  C98  1  0.61183166  0.90572491  0.50814690  1  0.369897  0  0.090775  0.168345  0  4.023338  0
C  C99  1  0.31365125  0.04736499  0.44298644  1  0.35922  0  0.075832  0.155864  0  3.989255  0
C  C100  1  0.98492681  0.53871895  0.98029152  1  -0.054077  0  -0.012996  0.007613  0  3.932988  0
C  C101  1  0.98945342  0.48722247  0.02786956  1  -0.01493  0  -0.016531  0.002147  0  3.951881  0
C  C102  1  0.48766557  0.96384259  0.50835581  1  -0.004355  0  -0.012092  0.011284  0  3.951374  0
C  C103  1  0.48467184  0.01285747  0.45877907  1  -0.019564  0  -0.007712  0.016819  0  3.970269  0
C  C104  1  0.01382319  0.90751915  0.90026099  1  0.00572  0  0.001451  -0.039624  0  3.919453  0
C  C105  1  0.01199181  0.07697028  0.11673842  1  0.018206  0  -0.000401  -0.046209  0  3.960445  0
C  C106  1  0.45264283  0.58207785  0.60716944  1  -0.006589  0  0.00637  -0.023962  0  3.894566  0
C  C107  1  0.56090257  0.41586360  0.38932814  1  0.05553  0  0.003432  -0.036957  0  3.901567  0
C  C108  1  0.89639365  0.95133134  0.08358855  1  0.488205  0  0.117772  0.187742  0  3.977733  0
C  C109  1  0.23348387  0.00877721  0.95323024  1  0.481726  0  0.126642  0.208537  0  3.994426  0
C  C110  1  0.57972451  0.54583140  0.42591198  1  0.449911  0  0.122609  0.198208  0  3.955166  0
C  C111  1  0.54216195  0.45698711  0.57633407  1  0.559738  0  0.140057  0.215942  0  3.986079  0
C  C112  1  0.91748017  0.01293062  0.13267998  1  -0.032156  0  -0.023641  -0.177101  0  3.940745  0
C  C113  1  0.17030432  0.96036417  0.89660978  1  0.02737  0  -0.017142  -0.153601  0  3.926171  0
C  C114  1  0.61229332  0.48646104  0.37652584  1  -0.004571  0  -0.020791  -0.170715  0  3.914659  0
C  C115  1  0.47821669  0.51387833  0.62472589  1  0.057653  0  -0.028628  -0.19372  0  3.942987  0
C  C116  1  0.11399269  0.07664676  0.05804272  1  0.013271  0  -0.010822  -0.106424  0  3.931445  0
C  C117  1  0.92041027  0.90158641  0.96036515  1  -0.001931  0  -0.028432  -0.166108  0  3.967159  0
C  C118  1  0.51967269  0.40564530  0.45391901  1  -0.00788  0  -0.017807  -0.122149  0  3.952129  0
C  C119  1  0.46990911  0.59244547  0.54141745  1  0.03908  0  -0.027914  -0.140801  0  3.960588  0
C  C120  1  0.11191222  0.01211073  0.01096992  1  0.050001  0  0.007149  -0.003589  0  3.939789  0
C  C121  1  0.97551280  0.95342885  0.01816165  1  -0.039317  0  0.003405  -0.004227  0  3.944299  0
C  C122  1  0.53219902  0.46523939  0.50732805  1  -0.040064  0  0.004236  -0.011451  0  3.934637  0
C  C123  1  0.52319736  0.53490281  0.49165773  1  0.04672  0  0.009385  0.01095  0  3.947771  0
C  C124  1  0.50433915  0.59257250  0.85621061  1  0.232092  0  -0.158619  -0.230975  0  3.960693  0
C  C125  1  0.49194188  0.42175454  0.17845105  1  0.301671  0  -0.154447  -0.203278  0  3.964999  0
C  C126  1  0.00213340  0.92307392  0.64143906  1  0.227343  0  -0.149428  -0.237012  0  3.881678  0
C  C127  1  0.92492647  0.18703384  0.40189127  1  0.260653  0  -0.15497  -0.240637  0  3.891194  0
C  C128  1  0.13573778  0.65354044  0.10680235  1  0.290436  0  -0.14584  -0.221205  0  3.978615  0
C  C129  1  0.51174293  0.36543201  0.99666947  1  0.268644  0  -0.138964  -0.217884  0  4.006236  0
C  C130  1  0.68440888  0.86723468  0.38777865  1  0.195734  0  -0.1409  -0.219282  0  3.949923  0
C  C131  1  0.06404369  0.09379024  0.52323040  1  0.229684  0  -0.144639  -0.223572  0  3.945071  0
C  C132  1  0.73781597  0.85087325  0.95967291  1  1.547128  0  0.233435  0.590041  0  4.125401  0
C  C133  1  0.16961748  0.14686749  0.03472487  1  1.493448  0  0.239337  0.587616  0  4.111352  0
C  C134  1  0.38746371  0.65745773  0.52231354  1  1.526825  0  0.230898  0.594738  0  4.150374  0
C  C135  1  0.41706169  0.33702532  0.46612414  1  1.500861  0  0.232413  0.585195  0  4.123911  0
C  C136  1  0.25641542  0.96971874  0.83146564  1  1.546887  0  0.225607  0.592669  0  4.137546  0
C  C137  1  0.85632810  0.01153282  0.20255322  1  1.522426  0  0.226852  0.591249  0  4.121307  0
C  C138  1  0.42545079  0.49826548  0.69071805  1  1.446698  0  0.228712  0.583014  0  4.116196  0
C  C139  1  0.71046517  0.50152694  0.31474356  1  1.481005  0  0.233024  0.583557  0  4.12376  0
C  C140  1  0.92289764  0.82637951  0.09635815  1  0.243725  0  -0.141912  -0.217525  0  3.980133  0
C  C141  1  0.55296871  0.05905039  0.00514669  1  0.257956  0  -0.146075  -0.217244  0  3.912995  0
C  C142  1  0.78540228  0.65888024  0.44633425  1  0.271857  0  -0.144017  -0.216492  0  3.938041  0
C  C143  1  0.75246784  0.35084278  0.56198958  1  0.266642  0  -0.131941  -0.215535  0  3.938021  0
N  N144  1  0.67658686  0.55270521  0.83013757  1  -1.118745  0  -0.480322  -0.355451  0  3.450264  0
N  N145  1  0.33365042  0.46637032  0.16427256  1  -1.145043  0  -0.463685  -0.318765  0  3.524023  0
N  N146  1  0.19783103  0.95967519  0.66305214  1  -1.067938  0  -0.453362  -0.29654  0  3.470176  0
N  N147  1  0.87581095  0.11025948  0.37604521  1  -1.148658  0  -0.456096  -0.300504  0  3.466232  0
N  N148  1  0.22567230  0.63460323  0.04151632  1  -1.144404  0  -0.465197  -0.328574  0  3.50459  0
N  N149  1  0.65688203  0.42495390  0.99649841  1  -1.200519  0  -0.458288  -0.293945  0  3.594686  0
N  N150  1  0.74661987  0.88336968  0.45795488  1  -1.140473  0  -0.455099  -0.315367  0  3.519583  0
N  N151  1  0.12184049  0.03701584  0.47026102  1  -1.130428  0  -0.47089  -0.330588  0  3.509224  0
N  N152  1  0.80353669  0.88832124  0.09751113  1  -1.159283  0  -0.448606  -0.300896  0  3.485924  0
N  N153  1  0.39804194  0.05536262  0.95354779  1  -1.181967  0  -0.438266  -0.294479  0  3.492621  0
N  N154  1  0.61251394  0.61548566  0.41409411  1  -1.132441  0  -0.449953  -0.308334  0  3.489974  0
N  N155  1  0.61152045  0.39862445  0.59602905  1  -1.223382  0  -0.418021  -0.245297  0  3.580871  0
O  O156  1  0.30171349  0.82375191  0.69354428  1  -1.241706  0  -0.229076  -0.576663  0  2.347978  0
O  O157  1  0.66882093  0.17678187  0.29019374  1  -1.246687  0  -0.229689  -0.573767  0  2.412055  0
O  O158  1  0.80050182  0.69429995  0.81045280  1  -1.24035  0  -0.226803  -0.58095  0  2.392719  0
O  O159  1  0.18897115  0.31785816  0.18687746  1  -1.257998  0  -0.23636  -0.588176  0  2.389542  0
O  O160  1  0.61421720  0.66841457  0.68789764  1  -1.243564  0  -0.226861  -0.575969  0  2.30527  0
O  O161  1  0.35911757  0.33553743  0.31134355  1  -1.246606  0  -0.230989  -0.583549  0  2.317497  0
O  O162  1  0.13405510  0.81999570  0.81895584  1  -1.269932  0  -0.235004  -0.607933  0  2.392212  0
O  O163  1  0.83596110  0.17213848  0.17447666  1  -1.256801  0  -0.233231  -0.588628  0  2.318385  0
O  O164  1  0.63622378  0.81485966  0.68547859  1  -1.245238  0  -0.22871  -0.571951  0  2.330353  0
O  O165  1  0.34167521  0.19128354  0.30892324  1  -1.240861  0  -0.239326  -0.584751  0  2.332241  0
O  O166  1  0.13115777  0.67985627  0.79826749  1  -1.257532  0  -0.23829  -0.592198  0  2.358381  0
O  O167  1  0.85232151  0.31643507  0.18398615  1  -1.256076  0  -0.24249  -0.601937  0  2.360697  0
O  O168  1  0.80504008  0.83593119  0.81390302  1  -1.255406  0  -0.227629  -0.569504  0  2.312246  0
O  O169  1  0.17052362  0.17336761  0.18722547  1  -1.266912  0  -0.230554  -0.598322  0  2.43155  0
O  O170  1  0.28419240  0.67801204  0.67393980  1  -1.258985  0  -0.233394  -0.588856  0  2.334302  0
O  O171  1  0.69072226  0.32332511  0.31153094  1  -1.248848  0  -0.224902  -0.575956  0  2.398787  0
O  O172  1  0.46476896  0.75848434  0.78722412  1  -1.441672  0  -0.446969  -0.984182  0  2.164128  0
O  O173  1  0.50710266  0.24768879  0.20297731  1  -1.422067  0  -0.451139  -0.981644  0  2.174453  0
O  O174  1  0.95970375  0.74759147  0.70577629  1  -1.425642  0  -0.446188  -0.974973  0  2.148318  0
O  O175  1  0.01099902  0.26059981  0.28455008  1  -1.418498  0  -0.448446  -0.97138  0  2.170137  0
O  O176  1  0.56901726  0.87006952  0.96006533  1  -1.121279  0  -0.27575  -0.447972  0  2.077337  0
O  O177  1  0.76538939  0.77951622  0.95402673  1  -1.147079  0  -0.337184  -0.481608  0  2.292791  0
O  O178  1  0.06208198  0.17059697  0.99659772  1  -1.10996  0  -0.287789  -0.476854  0  2.05045  0
O  O179  1  0.33582559  0.18480005  0.06269131  1  -1.101318  0  -0.315067  -0.465929  0  2.294919  0
O  O180  1  0.23455469  0.65649011  0.48984124  1  -1.138677  0  -0.29273  -0.497333  0  2.114108  0
O  O181  1  0.48845553  0.71923741  0.55029900  1  -1.135114  0  -0.327995  -0.478369  0  2.361535  0
O  O182  1  0.26797467  0.33286774  0.49959289  1  -1.126168  0  -0.290659  -0.482173  0  2.064253  0
O  O183  1  0.50194946  0.27837610  0.43383119  1  -1.130134  0  -0.32255  -0.480213  0  2.364421  0
O  O184  1  0.42750285  0.99445205  0.82340496  1  -1.146254  0  -0.309907  -0.506289  0  2.053408  0
O  O185  1  0.12229168  0.95260395  0.78301250  1  -1.172775  0  -0.328736  -0.471929  0  2.381083  0
O  O186  1  0.72929597  0.96855546  0.21989666  1  -1.153416  0  -0.312743  -0.514711  0  2.062891  0
O  O187  1  0.96220391  0.06152084  0.24479349  1  -1.169208  0  -0.319737  -0.452975  0  2.374362  0
O  O188  1  0.48070895  0.44772042  0.71618611  1  -1.147896  0  -0.298201  -0.509207  0  2.117208  0
O  O189  1  0.29163480  0.54260275  0.72049876  1  -1.103898  0  -0.316534  -0.452405  0  2.311786  0
O  O190  1  0.67712280  0.55223520  0.28645770  1  -1.146648  0  -0.299543  -0.503011  0  2.091779  0
O  O191  1  0.85428573  0.45683275  0.29439526  1  -1.09852  0  -0.3172  -0.453081  0  2.275724  0
