# generated using pymatgen
data_AlH15C24(NO)6
_symmetry_space_group_name_H-M   'P 1'
_cell_length_a   3.92897151
_cell_length_b   15.78868112
_cell_length_c   15.94764007
_cell_angle_alpha   59.47355183
_cell_angle_beta   91.22671488
_cell_angle_gamma   87.37320556
_symmetry_Int_Tables_number   1
_chemical_formula_structural   AlH15C24(NO)6
_chemical_formula_sum   'Al1 H15 C24 N6 O6'
_cell_volume   850.12029948
_cell_formula_units_Z   1
loop_
 _symmetry_equiv_pos_site_id
 _symmetry_equiv_pos_as_xyz
  1  'x, y, z'
loop_
 _atom_site_type_symbol
 _atom_site_label
 _atom_site_symmetry_multiplicity
 _atom_site_fract_x
 _atom_site_fract_y
 _atom_site_fract_z
 _atom_site_occupancy
 _atom_site_pbe_bader_charge
 _atom_site_pbe_bader_spin_density
 _atom_site_pbe_cm5_charge
 _atom_site_pbe_ddec_charge
 _atom_site_pbe_ddec_spin_density
 _atom_site_pbe_ddec_sum_bond_order
 _atom_site_pbe_magmom
Al  Al0  1  0.99316585  0.49628565  0.50124643  1  2.502157  0  0.421182  1.585968  0  2.579721  0
H  H1  1  0.66701465  0.95523323  0.14919861  1  0.065988  0  0.104679  0.116547  0  1.010244  0
H  H2  1  0.72610200  0.39354307  0.95855363  1  0.095066  0  0.103956  0.116355  0  1.011202  0
H  H3  1  0.78413056  0.14783203  0.39007964  1  0.089243  0  0.104262  0.116889  0  1.007494  0
H  H4  1  0.19617372  0.47885094  0.25755371  1  0.099861  0  0.106275  0.111173  0  0.990731  0
H  H5  1  0.20387011  0.39780388  0.15694792  1  0.096622  0  0.101303  0.10818  0  1.009157  0
H  H6  1  0.24033200  0.25771874  0.76519173  1  0.097079  0  0.107021  0.112257  0  0.989731  0
H  H7  1  0.23526271  0.16122116  0.94764181  1  0.093626  0  0.101755  0.108499  0  1.013935  0
H  H8  1  0.18353730  0.76944616  0.47429242  1  0.08111  0  0.106445  0.111158  0  0.9895  0
H  H9  1  0.19499979  0.95346937  0.39076170  1  0.090241  0  0.100672  0.107362  0  1.012128  0
H  H10  1  0.79811244  0.69052566  0.26987549  1  0.501128  0  0.303672  0.314923  0  0.968769  0
H  H11  1  0.87654316  0.80181353  0.17004779  1  0.441466  0  0.307606  0.305551  0  0.937337  0
H  H12  1  0.92310838  0.26643949  0.53038330  1  0.496792  0  0.303479  0.313995  0  0.968502  0
H  H13  1  0.03737506  0.16832235  0.51589369  1  0.439096  0  0.308027  0.306785  0  0.935931  0
H  H14  1  0.87081870  0.52869971  0.70020456  1  0.467858  0  0.303637  0.314647  0  0.966922  0
H  H15  1  0.95809035  0.51715557  0.81183775  1  0.434468  0  0.308365  0.306941  0  0.935208  0
C  C16  1  0.45654926  0.64957439  0.42070073  1  1.51801  0  0.268588  0.655386  0  4.050271  0
C  C17  1  0.50059270  0.41773794  0.42881497  1  1.49048  0  0.267228  0.653191  0  4.049658  0
C  C18  1  0.51129136  0.42494411  0.65241235  1  1.48634  0  0.267573  0.651488  0  4.055629  0
C  C19  1  0.44345389  0.75812057  0.36330882  1  0.008423  0  -0.02453  -0.167795  0  3.92709  0
C  C20  1  0.50808288  0.37556237  0.75939768  1  0.013522  0  -0.025594  -0.169444  0  3.930877  0
C  C21  1  0.50855730  0.36364839  0.37594402  1  0.07638  0  -0.026307  -0.172578  0  3.933605  0
C  C22  1  0.58484691  0.80986166  0.27003360  1  0.394166  0  0.107843  0.299334  0  4.071924  0
C  C23  1  0.56566534  0.91341872  0.22130716  1  0.019825  0  -0.09602  -0.232071  0  3.929355  0
C  C24  1  0.65252124  0.41559269  0.81346379  1  0.451345  0  0.109349  0.299418  0  4.072411  0
C  C25  1  0.62433538  0.36372814  0.91538957  1  -0.064521  0  -0.097141  -0.234684  0  3.926603  0
C  C26  1  0.68600821  0.26950318  0.41454305  1  0.412997  0  0.109433  0.301235  0  4.071901  0
C  C27  1  0.66095753  0.22143872  0.36075772  1  -0.051289  0  -0.097494  -0.235981  0  3.928909  0
C  C28  1  0.33283103  0.40754571  0.28414611  1  -0.086753  0  -0.082362  -0.065746  0  4.011836  0
C  C29  1  0.33434986  0.36284655  0.22872041  1  0.008804  0  -0.101617  -0.149784  0  4.010661  0
C  C30  1  0.35395302  0.28513225  0.80894921  1  -0.103455  0  -0.081482  -0.065555  0  4.009819  0
C  C31  1  0.34879246  0.23197247  0.90943028  1  0.09169  0  -0.100876  -0.147306  0  4.011856  0
C  C32  1  0.29614986  0.81123477  0.40391896  1  0.018478  0  -0.080241  -0.064468  0  4.005196  0
C  C33  1  0.30023081  0.91282922  0.35785675  1  -0.003451  0  -0.100658  -0.147688  0  4.006207  0
C  C34  1  0.43495613  0.96424077  0.26501923  1  -0.102323  0  -0.003334  0.035087  0  4.008494  0
C  C35  1  0.44665805  0.07256710  0.21277921  1  1.08471  0  0.258747  0.3864  0  3.999445  0
C  C36  1  0.48129921  0.27277546  0.96295733  1  0.009222  0  -0.002892  0.034091  0  4.007515  0
C  C37  1  0.47065352  0.21821148  0.07030133  1  1.034389  0  0.257281  0.384843  0  4.001464  0
C  C38  1  0.49336612  0.26751574  0.26903797  1  -0.008514  0  -0.002361  0.037408  0  4.010595  0
C  C39  1  0.47922782  0.21510568  0.21439353  1  1.071762  0  0.258579  0.38736  0  3.997388  0
N  N40  1  0.44851168  0.12015530  0.11491093  1  -1.184914  0  -0.30815  -0.407109  0  3.202762  0
N  N41  1  0.48543205  0.26939447  0.11669168  1  -1.17901  0  -0.31021  -0.412101  0  3.190884  0
N  N42  1  0.46094764  0.11658789  0.26610536  1  -1.19756  0  -0.309847  -0.41245  0  3.187813  0
N  N43  1  0.72011871  0.76262734  0.22452831  1  -1.252336  0  -0.59958  -0.625967  0  3.304163  0
N  N44  1  0.85899202  0.22215303  0.50419258  1  -1.254617  0  -0.598317  -0.623074  0  3.307008  0
N  N45  1  0.79780229  0.50477320  0.76914247  1  -1.22496  0  -0.596351  -0.62031  0  3.308647  0
O  O46  1  0.28606206  0.40345267  0.60807910  1  -1.267854  0  -0.24655  -0.610928  0  2.386889  0
O  O47  1  0.23456035  0.60718481  0.48411564  1  -1.264343  0  -0.242436  -0.59934  0  2.35909  0
O  O48  1  0.25256383  0.48171874  0.40852549  1  -1.256313  0  -0.244326  -0.605414  0  2.378048  0
O  O49  1  0.73725665  0.48716859  0.60751105  1  -1.254524  0  -0.237333  -0.599618  0  2.376846  0
O  O50  1  0.74246292  0.39880168  0.49303719  1  -1.265078  0  -0.240367  -0.602597  0  2.382405  0
O  O51  1  0.69560063  0.60153542  0.40478488  1  -1.260531  0  -0.240582  -0.610469  0  2.404692  0
