# generated using pymatgen
data_NiH20C18(NO3)2
_symmetry_space_group_name_H-M   'P 1'
_cell_length_a   9.26098966
_cell_length_b   13.51280551
_cell_length_c   19.26245686
_cell_angle_alpha   110.66797514
_cell_angle_beta   102.59997675
_cell_angle_gamma   90.13840910
_symmetry_Int_Tables_number   1
_chemical_formula_structural   NiH20C18(NO3)2
_chemical_formula_sum   'Ni4 H80 C72 N8 O24'
_cell_volume   2192.74596969
_cell_formula_units_Z   4
loop_
 _symmetry_equiv_pos_site_id
 _symmetry_equiv_pos_as_xyz
  1  'x, y, z'
loop_
 _atom_site_type_symbol
 _atom_site_label
 _atom_site_symmetry_multiplicity
 _atom_site_fract_x
 _atom_site_fract_y
 _atom_site_fract_z
 _atom_site_occupancy
 _atom_site_pbe_bader_charge
 _atom_site_pbe_bader_spin_density
 _atom_site_pbe_cm5_charge
 _atom_site_pbe_ddec_charge
 _atom_site_pbe_ddec_spin_density
 _atom_site_pbe_ddec_sum_bond_order
 _atom_site_pbe_magmom
Ni  Ni0  1  0.17783736  0.58535603  0.73292538  1  1.160677  1.563926  0.626445  0.763027  1.797374  2.399977  1.55
Ni  Ni1  1  0.32359562  0.85085527  0.26596013  1  1.157714  1.564561  0.6259  0.764155  1.800115  2.398915  1.551
Ni  Ni2  1  0.82047469  0.41343907  0.26639097  1  1.157298  -1.563724  0.626171  0.764085  -1.893052  2.398398  -1.55
Ni  Ni3  1  0.67905934  0.14951704  0.73425515  1  1.156009  1.564327  0.626285  0.764668  1.799064  2.396311  1.551
H  H4  1  0.43933418  0.66090959  0.77652387  1  0.644845  -0.000269  0.274941  0.366431  0.000194  0.984792  0.0
H  H5  1  0.06193963  0.88106232  0.22249186  1  0.647155  -0.00028  0.274969  0.367213  0.000195  0.983927  0.0
H  H6  1  0.55812352  0.33979836  0.22352001  1  0.653759  0.000282  0.27497  0.367312  -0.000241  0.983757  0.0
H  H7  1  0.94088960  0.11818678  0.77722724  1  0.64689  -0.000269  0.275495  0.368092  0.0002  0.982705  0.0
H  H8  1  0.43239287  0.54156504  0.77766741  1  0.622717  0.000145  0.28091  0.365908  0.000579  0.976339  0.0
H  H9  1  0.06903636  0.76036072  0.22067904  1  0.619771  0.000136  0.281846  0.366746  0.000514  0.973957  0.0
H  H10  1  0.56670574  0.45862049  0.22141801  1  0.620968  -0.000109  0.281179  0.366035  -0.000558  0.975486  0.0
H  H11  1  0.93410929  0.23890040  0.77880908  1  0.634886  0.000152  0.281075  0.366253  0.000591  0.975244  0.0
H  H12  1  0.06344421  0.41073869  0.75442153  1  0.640702  8.2e-05  0.284978  0.382772  0.000409  0.956143  0.0
H  H13  1  0.43892030  0.65549965  0.24530466  1  0.659054  8.5e-05  0.285459  0.383089  0.000357  0.955286  0.0
H  H14  1  0.93742230  0.58787347  0.24527819  1  0.648743  -0.000118  0.284697  0.382648  -0.000406  0.955767  0.0
H  H15  1  0.56438299  0.34507430  0.75463989  1  0.672227  7.3e-05  0.285028  0.382934  0.000418  0.95496  0.0
H  H16  1  0.23919235  0.42928840  0.77436157  1  0.625681  -7e-05  0.299718  0.381602  0.000229  0.933415  0.0
H  H17  1  0.26316088  0.65308994  0.22511474  1  0.622316  -4e-05  0.301363  0.383843  0.000218  0.930302  0.0
H  H18  1  0.76154421  0.57043946  0.22575333  1  0.625303  6.1e-05  0.300049  0.382491  -0.000266  0.932992  0.0
H  H19  1  0.74025447  0.34729539  0.77481274  1  0.623429  -5.5e-05  0.300012  0.382936  0.000227  0.932979  0.0
H  H20  1  0.77101228  0.52335696  0.49331089  1  0.122515  0.000824  0.106985  0.116344  0.000365  1.039252  0.0
H  H21  1  0.72745991  0.02981163  0.50743325  1  0.110722  0.000875  0.106783  0.116557  0.000412  1.038293  0.0
H  H22  1  0.22617388  0.47666669  0.50670258  1  0.068293  -0.00085  0.106936  0.116905  -0.000383  1.037899  0.0
H  H23  1  0.27214694  0.96987391  0.49468035  1  0.103247  0.00088  0.1066  0.11642  0.000411  1.038992  0.0
H  H24  1  0.05192628  0.66330914  0.40534582  1  0.079684  0.00119  0.103942  0.124256  0.000531  1.018196  0.001
H  H25  1  0.44822473  0.25822319  0.59400081  1  0.094348  0.001147  0.103717  0.124674  0.000453  1.018406  0.001
H  H26  1  0.94772875  0.33569820  0.59367686  1  0.090258  0.001132  0.104393  0.125399  0.00045  1.018453  0.001
H  H27  1  0.55280303  0.74180789  0.40580857  1  0.099699  -0.00117  0.103998  0.12481  -0.000557  1.018607  -0.001
H  H28  1  0.14418791  0.68270271  0.54390204  1  0.086002  0.00033  0.101299  0.094396  0.000213  1.022129  0.0
H  H29  1  0.35653362  0.13747861  0.45524154  1  0.075912  0.000255  0.101909  0.094461  0.000157  1.021017  0.0
H  H30  1  0.85430209  0.31621117  0.45511107  1  0.073993  -0.000184  0.101519  0.095252  -0.00013  1.020742  0.0
H  H31  1  0.64344664  0.86118125  0.54431001  1  0.083617  0.000256  0.101366  0.094126  0.000162  1.021458  0.0
H  H32  1  0.02886317  0.55373204  0.57494696  1  0.115728  0.002141  0.116464  0.087645  0.000814  1.026007  0.002
H  H33  1  0.47027429  0.97789514  0.42472478  1  0.108198  0.002171  0.116977  0.08899  0.000834  1.023555  0.002
H  H34  1  0.96863661  0.44481731  0.42441433  1  0.099547  -0.002156  0.116566  0.088439  -0.000867  1.025373  -0.002
H  H35  1  0.52993268  0.02084910  0.57660162  1  0.087879  0.002187  0.116033  0.086903  0.000843  1.025336  0.002
H  H36  1  0.45732446  0.79980043  0.61678193  1  0.068375  0.00181  0.105036  0.123455  0.000765  1.003941  0.001
H  H37  1  0.04341223  0.18033261  0.38252157  1  0.085659  0.001762  0.10537  0.124268  0.000738  1.001014  0.001
H  H38  1  0.53919467  0.20197948  0.38366333  1  0.088409  -0.001733  0.1057  0.124986  -0.00077  1.002802  -0.001
H  H39  1  0.95724482  0.81925601  0.61699127  1  0.087431  0.001795  0.105269  0.123668  0.000765  1.003219  0.001
H  H40  1  0.35279116  0.79720852  0.48294122  1  0.079263  0.000242  0.103497  0.097178  0.000137  1.009588  0.0
H  H41  1  0.14737942  0.31244539  0.51595118  1  0.083276  0.000284  0.103843  0.09753  0.000174  1.009456  0.0
H  H42  1  0.64538452  0.20345803  0.51711620  1  0.104068  0.000178  0.103873  0.098124  9.9e-05  1.008118  0.0
H  H43  1  0.85322387  0.68673227  0.48357109  1  0.079822  -0.000116  0.103646  0.097219  -7e-05  1.009212  0.0
H  H44  1  0.87767036  0.55770947  0.76225343  1  0.091086  0.002334  0.120835  0.090824  0.000926  0.985214  0.001
H  H45  1  0.62457224  0.79642101  0.23761817  1  0.132906  0.002194  0.121488  0.090992  0.000845  0.984324  0.001
H  H46  1  0.12112069  0.44016590  0.23727064  1  0.080183  -0.002209  0.12086  0.090924  -0.000896  0.985234  -0.001
H  H47  1  0.37918388  0.20744033  0.76342665  1  0.074019  0.002343  0.121089  0.090501  0.000928  0.985133  0.001
H  H48  1  0.61362856  0.52773704  0.68967635  1  0.083432  0.001273  0.108639  0.121937  0.000575  1.0029  0.001
H  H49  1  0.88800410  0.83980324  0.31135323  1  0.084904  0.001204  0.108558  0.12165  0.000538  1.002115  0.001
H  H50  1  0.38485492  0.47137751  0.31047974  1  0.091046  -0.001212  0.108819  0.122456  -0.000573  1.004467  -0.001
H  H51  1  0.11524223  0.16537870  0.69042853  1  0.058288  0.001301  0.108762  0.122243  0.000584  1.002008  0.001
H  H52  1  0.16327906  0.63345337  0.89529338  1  0.122117  0.002364  0.122368  0.102264  0.000881  0.983459  0.002
H  H53  1  0.33937009  0.73601281  0.10313108  1  0.127194  0.002334  0.122517  0.102986  0.000879  0.982208  0.002
H  H54  1  0.83522248  0.36534846  0.10399155  1  0.130322  -0.002327  0.122529  0.102092  -0.000927  0.98405  -0.002
H  H55  1  0.66020491  0.26526203  0.89672458  1  0.148584  0.002295  0.122483  0.102783  0.00086  0.982524  0.002
H  H56  1  0.06181858  0.78977237  0.74325824  1  0.132569  0.00201  0.119817  0.096522  0.000747  1.017182  0.001
H  H57  1  0.44103880  0.04519647  0.25602996  1  0.143052  0.001987  0.12004  0.096224  0.000743  1.018588  0.001
H  H58  1  0.93562211  0.20872552  0.25587991  1  0.140413  -0.002001  0.119905  0.096675  -0.000794  1.017533  -0.001
H  H59  1  0.56395029  0.95505790  0.74480137  1  0.154532  0.001964  0.119705  0.096239  0.000732  1.017766  0.001
H  H60  1  0.95370605  0.93423308  0.83286701  1  0.140624  0.001016  0.110367  0.131183  0.000474  1.00127  0.0
H  H61  1  0.54773922  0.10073692  0.16646577  1  0.119939  0.000948  0.111239  0.130895  0.000445  1.001195  0.0
H  H62  1  0.04451049  0.06456340  0.16649689  1  0.144623  -0.000935  0.110833  0.131486  -0.000466  1.001801  0.0
H  H63  1  0.45634040  0.89962457  0.83403495  1  0.121397  0.001014  0.110728  0.130964  0.000467  1.002696  0.0
H  H64  1  0.47205383  0.41899666  0.53593611  1  0.066586  -0.000444  0.095083  0.101679  -0.000218  1.009209  0.0
H  H65  1  0.02556447  0.88332503  0.46610329  1  0.052971  -0.000434  0.095275  0.101425  -0.000203  1.006224  0.0
H  H66  1  0.52465606  0.58195507  0.46436387  1  0.052036  0.000437  0.095249  0.101852  0.000197  1.007213  0.0
H  H67  1  0.97522388  0.11884760  0.53620103  1  0.062583  -0.000415  0.095229  0.101768  -0.00019  1.008052  0.0
H  H68  1  0.44370930  0.55374988  0.57356006  1  0.043711  -0.000334  0.099262  0.105858  -0.000179  1.002358  0.0
H  H69  1  0.05710334  0.97913102  0.42798741  1  0.054462  -0.000256  0.099158  0.10491  -0.000125  1.002474  0.0
H  H70  1  0.55436745  0.44740074  0.42689062  1  0.062944  0.000329  0.099365  0.105611  0.000167  1.002722  0.0
H  H71  1  0.94436721  0.02312748  0.57442721  1  0.064044  -0.000263  0.099378  0.10589  -0.000133  1.003061  0.0
H  H72  1  0.05931892  0.77267285  0.99360439  1  0.082285  0.001241  0.111323  0.123707  0.00057  0.989897  0.001
H  H73  1  0.44188538  0.77763934  0.00483469  1  0.060146  0.001245  0.111127  0.124474  0.000562  0.990392  0.001
H  H74  1  0.93971691  0.22627977  0.00586748  1  0.081221  -0.001207  0.111307  0.123886  -0.000583  0.990535  -0.001
H  H75  1  0.55638780  0.22355982  0.99461049  1  0.093494  0.001187  0.111227  0.125086  0.000547  0.989045  0.001
H  H76  1  0.84104444  0.98136378  0.94974634  1  0.052209  -0.00017  0.098426  0.101144  -8.1e-05  0.985987  0.0
H  H77  1  0.65961577  0.03150899  0.04929335  1  0.063186  -0.000131  0.09795  0.100466  -5.3e-05  0.987451  0.0
H  H78  1  0.15820680  0.01774783  0.04985210  1  0.054636  0.000145  0.098406  0.101446  4.3e-05  0.985016  0.0
H  H79  1  0.34121718  0.96912371  0.95042626  1  0.059585  -0.000145  0.098691  0.101757  -7e-05  0.986475  0.0
H  H80  1  0.90526660  0.92475282  0.02011064  1  0.042351  -0.0  0.100847  0.103473  1.8e-05  0.973692  0.0
H  H81  1  0.59339341  0.90490756  0.97802894  1  0.050465  7.9e-05  0.100458  0.103115  6.2e-05  0.974264  0.0
H  H82  1  0.09400755  0.07427015  0.97947532  1  0.040582  0.000111  0.100705  0.103075  5.4e-05  0.974357  0.0
H  H83  1  0.40710569  0.09575119  0.02178373  1  0.047989  -4.1e-05  0.100835  0.104207  -1.9e-05  0.973442  0.0
C  C84  1  0.78846906  0.53027499  0.55270541  1  -0.027091  0.005827  -0.089961  -0.197711  0.003386  3.95215  0.005
C  C85  1  0.71077061  0.97753599  0.44789493  1  -0.065748  0.005748  -0.088712  -0.194754  0.003279  3.951651  0.005
C  C86  1  0.20902294  0.46928393  0.44720529  1  0.013501  -0.005654  -0.08898  -0.195412  -0.003479  3.953615  -0.005
C  C87  1  0.28976803  0.02306667  0.55401816  1  0.049489  0.005818  -0.0897  -0.198657  0.003374  3.952361  0.005
C  C88  1  0.15061796  0.71388906  0.41281552  1  -0.03992  0.004281  -0.096563  -0.241565  0.00267  3.89606  0.003
C  C89  1  0.34944239  0.30077875  0.58637210  1  -0.113836  0.004368  -0.096796  -0.24425  0.00264  3.899716  0.003
C  C90  1  0.84888687  0.28553800  0.58653739  1  -0.041942  0.005635  -0.096461  -0.24376  0.003392  3.900653  0.004
C  C91  1  0.65115677  0.69880926  0.41328919  1  -0.081957  -0.005722  -0.09637  -0.24374  -0.003693  3.89951  -0.004
C  C92  1  0.66928432  0.52156612  0.58460803  1  -0.009497  -0.006672  0.016677  0.180143  -0.004003  3.926026  -0.004
C  C93  1  0.83051264  0.93738299  0.41633591  1  -0.017341  -0.00669  0.016291  0.178067  -0.004007  3.930274  -0.004
C  C94  1  0.32841170  0.47827222  0.41548757  1  -0.010769  0.006701  0.01555  0.177213  0.003807  3.928294  0.004
C  C95  1  0.17084150  0.06483630  0.58568762  1  -0.113757  -0.006713  0.016278  0.179688  -0.004022  3.927156  -0.004
C  C96  1  0.24463553  0.72759675  0.54630253  1  -0.021783  -0.000965  -0.083317  -0.047086  -0.000575  4.032801  -0.001
C  C97  1  0.25599900  0.17956310  0.45287033  1  0.004288  -0.000834  -0.084151  -0.045925  -0.000502  4.029545  -0.001
C  C98  1  0.75335149  0.27232680  0.45327176  1  -0.045312  0.001176  -0.082268  -0.045214  0.000635  4.028834  0.001
C  C99  1  0.74443640  0.81960391  0.54678697  1  -0.000332  -0.001279  -0.083199  -0.045751  -0.000732  4.028829  -0.001
C  C100  1  0.93248191  0.54690044  0.59726309  1  0.428673  -0.004555  0.045073  0.095877  -0.002246  3.952222  -0.003
C  C101  1  0.56716152  0.94931146  0.40272624  1  0.483201  -0.004755  0.043701  0.092852  -0.002301  3.951336  -0.003
C  C102  1  0.06525309  0.45185704  0.40231402  1  0.456167  0.004701  0.044676  0.093304  0.002056  3.954687  0.003
C  C103  1  0.43372419  0.05085154  0.59869967  1  0.451799  -0.004599  0.044989  0.096536  -0.002243  3.951652  -0.003
C  C104  1  0.35330613  0.75603831  0.61109291  1  -0.055646  0.0083  -0.085759  -0.209956  0.004977  3.849936  0.006
C  C105  1  0.14743192  0.14258124  0.38802221  1  -0.099968  0.007953  -0.085735  -0.211791  0.004784  3.84948  0.006
C  C106  1  0.64381580  0.24459648  0.38884925  1  -0.043519  -0.008409  -0.086841  -0.212455  -0.005314  3.849245  -0.006
C  C107  1  0.85318934  0.85690883  0.61153664  1  -0.093552  0.008571  -0.086448  -0.211557  0.005152  3.852128  0.006
C  C108  1  0.25420883  0.74965105  0.47969539  1  -0.088023  6.4e-05  -0.077255  -0.028605  2.5e-05  4.017407  0.0
C  C109  1  0.24606107  0.26860024  0.51942284  1  -0.027126  -9.2e-05  -0.077364  -0.029213  -6.2e-05  4.015981  0.0
C  C110  1  0.74424825  0.25047391  0.52002784  1  -0.123361  -0.000486  -0.07809  -0.029712  -0.000272  4.01591  0.0
C  C111  1  0.75451923  0.73058466  0.48022537  1  -0.063229  0.000608  -0.076553  -0.027521  0.000315  4.01377  0.0
C  C112  1  0.34366662  0.72173895  0.67566569  1  1.567575  -0.000774  0.197928  0.599129  0.000392  4.226645  -0.001
C  C113  1  0.15706412  0.04364233  0.32320806  1  1.56483  -0.000748  0.199013  0.601722  0.000396  4.224418  -0.001
C  C114  1  0.65336893  0.27842307  0.32406290  1  1.564781  0.000762  0.198436  0.599393  -0.000629  4.227415  0.001
C  C115  1  0.84411370  0.95601680  0.67631615  1  1.565768  -0.00075  0.198278  0.599827  0.000391  4.228418  -0.001
C  C116  1  0.84871312  0.54932400  0.70237480  1  0.482128  -0.003592  0.044697  0.089014  -0.001568  3.975966  -0.002
C  C117  1  0.65260798  0.84752931  0.29772662  1  0.379148  -0.003629  0.045789  0.091898  -0.001668  3.972782  -0.003
C  C118  1  0.14967772  0.44907271  0.29724150  1  0.509602  0.003678  0.044739  0.089338  0.001382  3.972444  0.002
C  C119  1  0.35026936  0.15542122  0.70356633  1  0.476163  -0.0036  0.046293  0.091854  -0.001587  3.971951  -0.002
C  C120  1  0.16859815  0.73735541  0.34540527  1  1.524982  -0.000533  0.200067  0.600168  0.000177  4.224638  -0.001
C  C121  1  0.33162083  0.39233163  0.65359212  1  1.535446  -0.000458  0.200766  0.602219  0.000211  4.218275  -0.001
C  C122  1  0.83204577  0.26192036  0.65400604  1  1.524567  -0.00033  0.200293  0.600177  0.000299  4.221441  -0.001
C  C123  1  0.66849821  0.60731481  0.34595439  1  1.529025  0.000448  0.200329  0.600917  -0.00036  4.219143  0.001
C  C124  1  0.70222726  0.53246895  0.66160290  1  -0.02603  0.005848  -0.082945  -0.173285  0.00342  3.930437  0.004
C  C125  1  0.79870774  0.87180486  0.33909868  1  0.047402  0.005614  -0.08292  -0.173357  0.003325  3.930723  0.004
C  C126  1  0.29596849  0.46666532  0.33835099  1  -0.046156  -0.005742  -0.08255  -0.172872  -0.003532  3.932549  -0.004
C  C127  1  0.20383680  0.13173852  0.66263188  1  0.06567  0.005847  -0.083465  -0.173952  0.003441  3.929507  0.005
C  C128  1  0.11617671  0.70229115  0.88497616  1  0.434943  -0.003667  0.046463  0.090587  -0.001547  3.961493  -0.002
C  C129  1  0.38620560  0.81553009  0.11370946  1  0.444744  -0.00374  0.046143  0.088464  -0.001541  3.960284  -0.002
C  C130  1  0.88233264  0.29652503  0.11434614  1  0.439001  0.003706  0.046998  0.092554  0.001298  3.961707  0.002
C  C131  1  0.61449008  0.18548482  0.88629140  1  0.428644  -0.00369  0.046021  0.087273  -0.001518  3.959834  -0.002
C  C132  1  0.05846023  0.78951749  0.79935505  1  0.488197  -0.004594  0.048625  0.096056  -0.002368  3.9424  -0.003
C  C133  1  0.44412700  0.98873059  0.19981547  1  0.452245  -0.004618  0.047887  0.095471  -0.002386  3.943167  -0.003
C  C134  1  0.93956367  0.20921242  0.19990101  1  0.413601  0.004505  0.047429  0.094559  0.002092  3.945554  0.003
C  C135  1  0.55972068  0.01179183  0.80075174  1  0.453857  -0.004554  0.048951  0.097028  -0.002352  3.9396  -0.003
C  C136  1  0.99821159  0.86940453  0.84992824  1  -0.082675  0.00572  -0.083298  -0.182331  0.003291  3.927288  0.004
C  C137  1  0.50340422  0.01851562  0.14920311  1  -0.042821  0.005564  -0.083711  -0.181279  0.003219  3.929837  0.004
C  C138  1  0.00013784  0.12941178  0.14942919  1  -0.061305  -0.005576  -0.083646  -0.182272  -0.003421  3.928672  -0.004
C  C139  1  0.49968435  0.98203651  0.85116087  1  -0.024807  0.005599  -0.083709  -0.18205  0.003225  3.929162  0.004
C  C140  1  0.51129622  0.49830411  0.53986047  1  -0.036423  -3e-06  -0.159923  -0.198949  -7.1e-05  3.957004  0.0
C  C141  1  0.98804533  0.95866122  0.46158476  1  -0.021561  7.3e-05  -0.160452  -0.197928  -0.0  3.958806  0.0
C  C142  1  0.48622107  0.50246487  0.46048588  1  -0.006849  -1e-05  -0.160362  -0.198744  4e-05  3.956993  0.0
C  C143  1  0.01308500  0.04352714  0.54063696  1  -0.017949  7.5e-05  -0.159487  -0.198544  -1e-06  3.956696  0.0
C  C144  1  0.05763820  0.77944136  0.93862038  1  -0.067402  0.006243  -0.087025  -0.197202  0.003636  3.964885  0.005
C  C145  1  0.44402670  0.83941148  0.06002441  1  -0.010644  0.006199  -0.086204  -0.197684  0.003617  3.962358  0.005
C  C146  1  0.94136455  0.21951461  0.06083749  1  -0.030687  -0.006264  -0.087566  -0.198603  -0.00383  3.965018  -0.005
C  C147  1  0.55592716  0.16156262  0.93974883  1  -0.05932  0.006211  -0.087321  -0.198592  0.003602  3.962074  0.005
C  C148  1  0.99630436  0.86486865  0.92122512  1  0.034047  -0.006588  0.00967  0.161249  -0.003954  3.974488  -0.004
C  C149  1  0.50469240  0.94279019  0.07761443  1  -0.009331  -0.006795  0.009023  0.161625  -0.004057  3.971145  -0.004
C  C150  1  0.00258570  0.13406459  0.07823106  1  -0.002299  0.006566  0.009636  0.161739  0.003731  3.974128  0.004
C  C151  1  0.49653581  0.05795182  0.92238711  1  -0.033935  -0.006705  0.00999  0.162013  -0.004005  3.97445  -0.004
C  C152  1  0.93896296  0.95271765  0.97840390  1  -0.014109  0.000558  -0.151896  -0.195688  0.000302  3.943141  0.001
C  C153  1  0.56091083  0.97441892  0.02055295  1  -0.030973  -0.000309  -0.151313  -0.194938  -0.000229  3.941318  0.0
C  C154  1  0.06021485  0.04626643  0.02114056  1  -0.03486  -0.00056  -0.151005  -0.194886  -0.000333  3.942948  -0.001
C  C155  1  0.43978692  0.02629142  0.97930008  1  -0.041309  -0.000324  -0.152598  -0.197845  -0.000249  3.943894  0.0
N  N156  1  0.96291842  0.55582577  0.67077629  1  -1.220198  0.075769  -0.335971  -0.2399  0.045518  3.627739  0.067
N  N157  1  0.53782491  0.88496608  0.32898972  1  -1.222314  0.075707  -0.336301  -0.241188  0.045424  3.627345  0.067
N  N158  1  0.03528885  0.44243881  0.32869935  1  -1.222131  -0.075907  -0.33515  -0.238944  -0.048093  3.627132  -0.067
N  N159  1  0.46423315  0.11632496  0.67213852  1  -1.22886  0.076163  -0.336632  -0.240925  0.045698  3.627944  0.068
N  N160  1  0.11602237  0.70706108  0.81634375  1  -1.214314  0.078823  -0.332437  -0.235384  0.047214  3.621868  0.07
N  N161  1  0.38665286  0.88889284  0.18256799  1  -1.214759  0.078534  -0.330758  -0.233647  0.047059  3.615907  0.07
N  N162  1  0.88204176  0.29166849  0.18289894  1  -1.188359  -0.078743  -0.331889  -0.236248  -0.049805  3.623116  -0.07
N  N163  1  0.61607966  0.11187882  0.81780318  1  -1.22044  0.078251  -0.331013  -0.234059  0.046852  3.614969  0.069
O  O164  1  0.40156046  0.61383456  0.80103149  1  -1.246652  0.067768  -0.59099  -0.746673  0.039489  2.068983  0.057
O  O165  1  0.10014532  0.80967659  0.19776088  1  -1.245916  0.067211  -0.591373  -0.747279  0.039106  2.068431  0.057
O  O166  1  0.59661023  0.38595421  0.19849928  1  -1.253512  -0.067385  -0.590977  -0.747512  -0.041531  2.06756  -0.057
O  O167  1  0.90316521  0.18978310  0.80191241  1  -1.261316  0.067178  -0.591523  -0.748247  0.039128  2.066372  0.057
O  O168  1  0.21605647  0.68141333  0.67323079  1  -1.154406  0.080461  -0.3165  -0.564561  0.046408  2.352886  0.074
O  O169  1  0.28499839  0.00679757  0.32511505  1  -1.154404  0.080062  -0.316914  -0.565241  0.046249  2.355065  0.074
O  O170  1  0.78160525  0.31680577  0.32563874  1  -1.150204  -0.080299  -0.317666  -0.565749  -0.049048  2.350656  -0.074
O  O171  1  0.71656727  0.99351373  0.67441732  1  -1.154383  0.080526  -0.316378  -0.564387  0.046526  2.353913  0.074
O  O172  1  0.26430793  0.81255630  0.35651777  1  -1.155208  0.056157  -0.312513  -0.554639  0.032907  2.306179  0.052
O  O173  1  0.23519716  0.45556854  0.64237996  1  -1.155802  0.056257  -0.312072  -0.554093  0.032855  2.304083  0.052
O  O174  1  0.73637056  0.18682317  0.64309675  1  -1.153894  0.057089  -0.311254  -0.552572  0.03344  2.308518  0.053
O  O175  1  0.76334782  0.54313840  0.35715555  1  -1.155911  -0.056036  -0.311592  -0.553484  -0.034722  2.304294  -0.052
O  O176  1  0.08778243  0.68048871  0.27932083  1  -1.202489  -0.00129  -0.321088  -0.590545  -0.001082  2.188745  -0.001
O  O177  1  0.41349627  0.40308260  0.71962438  1  -1.203037  -0.000291  -0.321303  -0.591113  -0.000635  2.187404  -0.001
O  O178  1  0.91371088  0.31841891  0.71998262  1  -1.194875  -4.7e-05  -0.320896  -0.590497  -0.0005  2.191332  0.0
O  O179  1  0.58786335  0.59742619  0.27982050  1  -1.204624  0.001144  -0.3213  -0.590122  0.00094  2.189502  0.001
O  O180  1  0.14960787  0.46493407  0.78438257  1  -1.234093  0.05718  -0.570419  -0.738159  0.033383  2.070932  0.049
O  O181  1  0.35280049  0.67922755  0.21528885  1  -1.245441  0.056722  -0.57207  -0.74003  0.033217  2.071446  0.049
O  O182  1  0.85063698  0.53410980  0.21562186  1  -1.238299  -0.056772  -0.570446  -0.739034  -0.035084  2.072606  -0.049
O  O183  1  0.65045221  0.32159613  0.78476068  1  -1.260269  0.056686  -0.569162  -0.73816  0.033196  2.071884  0.049
O  O184  1  0.46204081  0.73195014  0.72640685  1  -1.172692  0.000368  -0.325756  -0.555215  -0.000187  2.115498  0.0
O  O185  1  0.03836886  0.00203833  0.27281496  1  -1.175518  0.000309  -0.325425  -0.555538  -0.000199  2.11412  0.0
O  O186  1  0.53449070  0.26976113  0.27397772  1  -1.172514  -0.000377  -0.325607  -0.555025  8.1e-05  2.115608  0.0
O  O187  1  0.96291737  0.99707034  0.72676065  1  -1.176301  0.000413  -0.3255  -0.555058  -0.000159  2.115995  0.0
