# generated using pymatgen
data_AlH6C8NO5
_symmetry_space_group_name_H-M   'P 1'
_cell_length_a   6.68619289
_cell_length_b   11.63830230
_cell_length_c   17.67441517
_cell_angle_alpha   90.06318071
_cell_angle_beta   91.15782209
_cell_angle_gamma   90.67252236
_symmetry_Int_Tables_number   1
_chemical_formula_structural   AlH6C8NO5
_chemical_formula_sum   'Al4 H24 C32 N4 O20'
_cell_volume   1374.97436209
_cell_formula_units_Z   4
loop_
 _symmetry_equiv_pos_site_id
 _symmetry_equiv_pos_as_xyz
  1  'x, y, z'
loop_
 _atom_site_type_symbol
 _atom_site_label
 _atom_site_symmetry_multiplicity
 _atom_site_fract_x
 _atom_site_fract_y
 _atom_site_fract_z
 _atom_site_occupancy
 _atom_site_pbe_bader_charge
 _atom_site_pbe_bader_spin_density
 _atom_site_pbe_cm5_charge
 _atom_site_pbe_ddec_charge
 _atom_site_pbe_ddec_spin_density
 _atom_site_pbe_ddec_sum_bond_order
 _atom_site_pbe_magmom
Al  Al0  1  0.99490036  0.99597034  0.50375827  1  2.497903  0  0.39757  1.645352  0  2.579032  0
Al  Al1  1  0.49500443  0.99890830  0.49984594  1  2.501872  0  0.394585  1.64371  0  2.59247  0
Al  Al2  1  0.00458004  0.49816128  0.99987715  1  2.503601  0  0.400322  1.645207  0  2.577631  0
Al  Al3  1  0.50502605  0.49570922  0.00070525  1  2.501954  0  0.399022  1.648793  0  2.583625  0
H  H4  1  0.23952001  0.84902516  0.48055330  1  0.622753  0  0.354486  0.430278  0  0.851074  0
H  H5  1  0.75143819  0.15213312  0.49855361  1  0.613976  0  0.356387  0.432133  0  0.846707  0
H  H6  1  0.26080027  0.64727022  0.01601900  1  0.612073  0  0.357037  0.436481  0  0.842203  0
H  H7  1  0.75729337  0.34944511  0.02171463  1  0.631074  0  0.355944  0.43478  0  0.845964  0
H  H8  1  0.05604226  0.75101911  0.83441730  1  0.109728  0  0.103432  0.113651  0  1.010021  0
H  H9  1  0.43799054  0.65484145  0.80131986  1  0.101751  0  0.110562  0.125449  0  1.002401  0
H  H10  1  0.04220350  0.85930624  0.71128687  1  0.077304  0  0.104958  0.104134  0  1.021108  0
H  H11  1  0.55658408  0.23974780  0.17286181  1  0.09127  0  0.101097  0.108008  0  1.014673  0
H  H12  1  0.94446078  0.34151970  0.19494812  1  0.077787  0  0.109775  0.124224  0  1.001231  0
H  H13  1  0.53445552  0.13346570  0.29616751  1  0.072592  0  0.104396  0.104226  0  1.02331  0
H  H14  1  0.93850462  0.24871946  0.82457048  1  0.086338  0  0.104777  0.114912  0  1.007571  0
H  H15  1  0.55587324  0.34858033  0.80389429  1  0.078026  0  0.112983  0.128704  0  0.996202  0
H  H16  1  0.95733968  0.14231859  0.70083879  1  0.081486  0  0.106187  0.105382  0  1.020404  0
H  H17  1  0.06692661  0.65057486  0.21447235  1  0.105899  0  0.102768  0.112548  0  1.014552  0
H  H18  1  0.45326600  0.73256919  0.16525097  1  0.0507  0  0.108894  0.12225  0  1.004667  0
H  H19  1  0.04327512  0.75234207  0.33899830  1  0.115871  0  0.101912  0.100575  0  1.023296  0
H  H20  1  0.36837858  0.81054626  0.62555787  1  0.500435  0  0.307444  0.316992  0  0.981988  0
H  H21  1  0.26119116  0.72125030  0.69366086  1  0.44932  0  0.306876  0.30161  0  0.959651  0
H  H22  1  0.86717246  0.18567568  0.36957365  1  0.484172  0  0.305441  0.311308  0  0.987297  0
H  H23  1  0.76227000  0.27635025  0.30100515  1  0.475105  0  0.305829  0.302566  0  0.961673  0
H  H24  1  0.62777299  0.19529973  0.62837749  1  0.485733  0  0.305509  0.309032  0  0.988697  0
H  H25  1  0.73498358  0.28513697  0.69755582  1  0.449401  0  0.305507  0.300898  0  0.96491  0
H  H26  1  0.37648297  0.88786778  0.33992306  1  0.524405  0  0.309807  0.313403  0  0.986723  0
H  H27  1  0.27408819  0.84488476  0.25175413  1  0.446347  0  0.312223  0.308978  0  0.946462  0
C  C28  1  0.73913835  0.86390923  0.39534084  1  1.509982  0  0.260981  0.656424  0  4.076789  0
C  C29  1  0.74591854  0.87389425  0.61197813  1  1.513259  0  0.260385  0.652266  0  4.090892  0
C  C30  1  0.25483173  0.12972385  0.60750446  1  1.485313  0  0.263765  0.658113  0  4.076558  0
C  C31  1  0.23798915  0.12281311  0.39083973  1  1.513047  0  0.25609  0.646742  0  4.095658  0
C  C32  1  0.76539912  0.62580441  0.10835717  1  1.577517  0  0.267905  0.643426  0  4.086013  0
C  C33  1  0.74788465  0.62825510  0.89547280  1  1.568807  0  0.272116  0.646311  0  4.080487  0
C  C34  1  0.24332904  0.36992085  0.89314223  1  1.573089  0  0.272172  0.645649  0  4.084764  0
C  C35  1  0.25853871  0.36383011  0.10562183  1  1.583025  0  0.270131  0.64886  0  4.080402  0
C  C36  1  0.73768137  0.81355446  0.68506763  1  -0.020234  0  -0.031176  -0.177033  0  3.932841  0
C  C37  1  0.74656347  0.69534901  0.82348077  1  -0.024472  0  -0.013352  -0.013104  0  4.014583  0
C  C38  1  0.55970509  0.75779816  0.71051520  1  0.477594  0  0.116015  0.31438  0  4.065199  0
C  C39  1  0.92050748  0.75291583  0.79921110  1  -0.063289  0  -0.109253  -0.155691  0  4.03453  0
C  C40  1  0.57064458  0.69903715  0.78047580  1  -0.019203  0  -0.0934  -0.217032  0  3.912746  0
C  C41  1  0.91233046  0.81145951  0.73110509  1  -0.033583  0  -0.089444  -0.083399  0  4.042414  0
C  C42  1  0.23328839  0.18228476  0.31714593  1  0.008534  0  -0.033083  -0.176123  0  3.931497  0
C  C43  1  0.25086171  0.29826620  0.17818400  1  -0.012029  0  -0.012389  -0.008117  0  4.008027  0
C  C44  1  0.05951786  0.23894011  0.28826385  1  0.4492  0  0.11539  0.315941  0  4.063598  0
C  C45  1  0.42069847  0.23989837  0.20584669  1  -0.031119  0  -0.110321  -0.157233  0  4.039645  0
C  C46  1  0.07407674  0.29643901  0.21809404  1  -0.021853  0  -0.094394  -0.218913  0  3.911244  0
C  C47  1  0.40823003  0.18223478  0.27403566  1  -0.057156  0  -0.091781  -0.085297  0  4.050966  0
C  C48  1  0.26065548  0.19122288  0.68039902  1  0.015277  0  -0.031319  -0.177847  0  3.933579  0
C  C49  1  0.24720293  0.30620114  0.81976142  1  -0.078841  0  -0.010429  -0.007353  0  4.009111  0
C  C50  1  0.43629717  0.24821059  0.70939781  1  0.423606  0  0.115649  0.314529  0  4.065328  0
C  C51  1  0.07436566  0.24883036  0.79156715  1  -0.061773  0  -0.10796  -0.158197  0  4.034639  0
C  C52  1  0.42399737  0.30483714  0.77992593  1  0.080694  0  -0.0922  -0.215735  0  3.906904  0
C  C53  1  0.08503622  0.19138258  0.72322834  1  -0.019919  0  -0.089635  -0.082766  0  4.043373  0
C  C54  1  0.73861092  0.80246324  0.32230778  1  0.009903  0  -0.032211  -0.180106  0  3.92988  0
C  C55  1  0.76024461  0.68844723  0.18229954  1  0.005765  0  -0.013642  -0.008208  0  4.006961  0
C  C56  1  0.56651611  0.79824468  0.27288043  1  0.485152  0  0.116869  0.317562  0  4.068652  0
C  C57  1  0.93025036  0.69310736  0.23085329  1  -0.041775  0  -0.111131  -0.161644  0  4.037848  0
C  C58  1  0.58315889  0.73915123  0.20339843  1  -0.009736  0  -0.095273  -0.218639  0  3.919981  0
C  C59  1  0.91578501  0.74896044  0.29966622  1  -0.117458  0  -0.089984  -0.077405  0  4.046006  0
N  N60  1  0.38450520  0.75584319  0.66996860  1  -1.269084  0  -0.58628  -0.603913  0  3.350735  0
N  N61  1  0.88492615  0.24243821  0.32653328  1  -1.284717  0  -0.589439  -0.609034  0  3.350282  0
N  N62  1  0.61110791  0.25253364  0.67112770  1  -1.244022  0  -0.589233  -0.607219  0  3.350614  0
N  N63  1  0.39074644  0.84923142  0.28896855  1  -1.30298  0  -0.584089  -0.606059  0  3.377486  0
O  O64  1  0.90697055  0.88487874  0.42888627  1  -1.268911  0  -0.246309  -0.612837  0  2.338488  0
O  O65  1  0.57970999  0.89615048  0.57764082  1  -1.278095  0  -0.241097  -0.610103  0  2.389284  0
O  O66  1  0.42132636  0.10525588  0.57633893  1  -1.261857  0  -0.240186  -0.60847  0  2.366499  0
O  O67  1  0.07097925  0.09802036  0.42195135  1  -1.263208  0  -0.241942  -0.608267  0  2.371294  0
O  O68  1  0.08385464  0.10342531  0.57857025  1  -1.261981  0  -0.243488  -0.606431  0  2.359457  0
O  O69  1  0.40949698  0.09873052  0.41965289  1  -1.272347  0  -0.248809  -0.616156  0  2.361757  0
O  O70  1  0.56965712  0.89430890  0.42164142  1  -1.26321  0  -0.241435  -0.611679  0  2.37678  0
O  O71  1  0.91721698  0.90051107  0.58600674  1  -1.261855  0  -0.243595  -0.601671  0  2.347392  0
O  O72  1  0.24440406  0.92546951  0.50234682  1  -1.429604  0  -0.447472  -0.985591  0  2.186189  0
O  O73  1  0.74705435  0.06902746  0.49939144  1  -1.420885  0  -0.448524  -0.989408  0  2.1997  0
O  O74  1  0.93585793  0.59558664  0.08489010  1  -1.257719  0  -0.238088  -0.595793  0  2.334296  0
O  O75  1  0.57953072  0.59291895  0.91903028  1  -1.264992  0  -0.233432  -0.589136  0  2.363827  0
O  O76  1  0.41083753  0.38824307  0.92674247  1  -1.262998  0  -0.236325  -0.595138  0  2.358432  0
O  O77  1  0.09179112  0.38545811  0.07280875  1  -1.265992  0  -0.239457  -0.606233  0  2.357684  0
O  O78  1  0.07360133  0.40143354  0.91643103  1  -1.253022  0  -0.232955  -0.582917  0  2.329418  0
O  O79  1  0.43070157  0.39369252  0.08233879  1  -1.254788  0  -0.237258  -0.59609  0  2.326269  0
O  O80  1  0.59775770  0.60704949  0.07457518  1  -1.269582  0  -0.239759  -0.606584  0  2.355908  0
O  O81  1  0.91648446  0.61035400  0.92810671  1  -1.256514  0  -0.236328  -0.594096  0  2.333963  0
O  O82  1  0.25697091  0.56686278  0.00201867  1  -1.414547  0  -0.447457  -0.992481  0  2.197465  0
O  O83  1  0.75433302  0.42656252  0.00125904  1  -1.433288  0  -0.447859  -0.990637  0  2.193152  0
