# generated using pymatgen
data_ZnH14C21S2(NO2)2
_symmetry_space_group_name_H-M   'P 1'
_cell_length_a   14.66766956
_cell_length_b   14.64143951
_cell_length_c   29.13776371
_cell_angle_alpha   100.72567000
_cell_angle_beta   100.80291287
_cell_angle_gamma   90.38861546
_symmetry_Int_Tables_number   1
_chemical_formula_structural   ZnH14C21S2(NO2)2
_chemical_formula_sum   'Zn8 H112 C168 S16 N16 O32'
_cell_volume   6033.59193260
_cell_formula_units_Z   8
loop_
 _symmetry_equiv_pos_site_id
 _symmetry_equiv_pos_as_xyz
  1  'x, y, z'
loop_
 _atom_site_type_symbol
 _atom_site_label
 _atom_site_symmetry_multiplicity
 _atom_site_fract_x
 _atom_site_fract_y
 _atom_site_fract_z
 _atom_site_occupancy
 _atom_site_pbe_bader_charge
 _atom_site_pbe_bader_spin_density
 _atom_site_pbe_cm5_charge
 _atom_site_pbe_ddec_charge
 _atom_site_pbe_ddec_spin_density
 _atom_site_pbe_ddec_sum_bond_order
 _atom_site_pbe_magmom
Zn  Zn0  1  0.59642411  0.31206182  0.75721428  1  1.295331  0  0.668418  0.834204  0  2.390733  0
Zn  Zn1  1  0.40357611  0.68793842  0.24278635  1  1.295358  0  0.668426  0.834242  0  2.390715  0
Zn  Zn2  1  0.05687517  0.76951202  0.65739043  1  1.295442  0  0.668623  0.827405  0  2.411799  0
Zn  Zn3  1  0.94312497  0.23048613  0.34260897  1  1.295535  0  0.668617  0.827382  0  2.411854  0
Zn  Zn4  1  0.62292093  0.27284854  0.65961162  1  1.2918  0  0.671872  0.837232  0  2.408951  0
Zn  Zn5  1  0.37708134  0.72715101  0.34038914  1  1.291753  0  0.671885  0.837277  0  2.408892  0
Zn  Zn6  1  0.15870709  0.81313439  0.75364361  1  1.297337  0  0.671243  0.834317  0  2.41479  0
Zn  Zn7  1  0.84129446  0.18686446  0.24635565  1  1.297376  0  0.671254  0.83435  0  2.414782  0
H  H8  1  0.39435492  0.00848933  0.34616985  1  0.146859  0  0.104541  0.121394  0  1.015312  0
H  H9  1  0.60564519  0.99150812  0.65382811  1  0.14689  0  0.104533  0.121403  0  1.015348  0
H  H10  1  0.47523347  0.28753557  0.58277766  1  0.123565  0  0.121804  0.097386  0  1.010198  0
H  H11  1  0.52476872  0.71246189  0.41722324  1  0.123526  0  0.121788  0.097283  0  1.01024  0
H  H12  1  0.73956701  0.32266558  0.84180196  1  0.13348  0  0.123993  0.101128  0  0.986259  0
H  H13  1  0.26043400  0.67733675  0.15819860  1  0.133423  0  0.124  0.101108  0  0.98625  0
H  H14  1  0.34412949  0.81259259  0.82247836  1  0.124432  0  0.122547  0.099011  0  0.988345  0
H  H15  1  0.65587507  0.18741182  0.17752067  1  0.124556  0  0.122537  0.099039  0  0.988234  0
H  H16  1  0.37579211  0.07873955  0.59879190  1  0.103771  0  0.106825  0.120128  0  0.998176  0
H  H17  1  0.62420826  0.92126417  0.40120907  1  0.103787  0  0.106853  0.120149  0  0.998111  0
H  H18  1  0.23835368  0.95443605  0.59541203  1  0.084827  0  0.104459  0.115597  0  0.999417  0
H  H19  1  0.76164730  0.04556558  0.40458812  1  0.084814  0  0.104444  0.115574  0  0.999413  0
H  H20  1  0.73754761  0.18538695  0.58467286  1  0.120947  0  0.129339  0.102489  0  0.962096  0
H  H21  1  0.26245394  0.81461189  0.41532537  1  0.120968  0  0.129338  0.102514  0  0.96211  0
H  H22  1  0.43110244  0.23809591  0.49392104  1  0.061816  0  0.113357  0.122347  0  0.982119  0
H  H23  1  0.56889615  0.76189876  0.50608029  1  0.06184  0  0.113359  0.122355  0  0.982123  0
H  H24  1  0.91993214  0.49966861  0.33920743  1  0.122875  0  0.106642  0.123838  0  1.013262  0
H  H25  1  0.08006397  0.50033302  0.66079191  1  0.122803  0  0.106606  0.123792  0  1.01333  0
H  H26  1  0.75783132  0.36944226  0.93067398  1  0.070252  0  0.108588  0.114584  0  0.99581  0
H  H27  1  0.24217107  0.63056006  0.06932705  1  0.070283  0  0.108593  0.114589  0  0.995897  0
H  H28  1  0.83701374  0.14583739  0.81416678  1  0.075387  0  0.098875  0.109328  0  1.016195  0
H  H29  1  0.16297785  0.85415588  0.18583308  1  0.075441  0  0.098965  0.109433  0  1.016157  0
H  H30  1  0.70519115  0.13190274  0.49609295  1  0.065881  0  0.111888  0.12106  0  0.981748  0
H  H31  1  0.29480847  0.86809959  0.50390542  1  0.065861  0  0.111856  0.120971  0  0.98174  0
H  H32  1  0.38076149  0.43094007  0.60293255  1  0.083698  0  0.103616  0.116232  0  1.002949  0
H  H33  1  0.61924200  0.56905529  0.39706519  1  0.08391  0  0.103655  0.11626  0  1.002938  0
H  H34  1  0.24768986  0.55506146  0.60173095  1  0.086296  0  0.108311  0.12124  0  0.995135  0
H  H35  1  0.75230712  0.44492763  0.39826559  1  0.086176  0  0.108285  0.121228  0  0.995129  0
H  H36  1  0.26261709  0.84444062  0.07748014  1  0.052374  0  0.092155  0.095188  0  1.039585  0
H  H37  1  0.73738301  0.15555683  0.92251988  1  0.052416  0  0.092167  0.095204  0  1.03962  0
H  H38  1  0.39974511  0.85318388  0.91069148  1  0.064486  0  0.109968  0.11873  0  1.000553  0
H  H39  1  0.60026073  0.14681775  0.08930810  1  0.064228  0  0.109967  0.118737  0  1.000558  0
H  H40  1  0.06788251  0.72571959  0.48154732  1  0.073139  0  0.114586  0.125332  0  0.977153  0
H  H41  1  0.93211644  0.27428342  0.51845276  1  0.073229  0  0.114565  0.125322  0  0.977113  0
H  H42  1  0.60632952  0.20393353  0.33532953  1  0.055089  0  0.099088  0.115337  0  1.008308  0
H  H43  1  0.39366466  0.79607157  0.66467030  1  0.054859  0  0.099072  0.115305  0  1.008331  0
H  H44  1  0.12391425  0.77048554  0.57002316  1  0.127679  0  0.120598  0.092242  0  1.018875  0
H  H45  1  0.87608482  0.22952026  0.42997685  1  0.127666  0  0.120649  0.092305  0  1.018981  0
H  H46  1  0.96556483  0.01720339  0.81317627  1  0.089737  0  0.104605  0.116791  0  1.001799  0
H  H47  1  0.03443038  0.98279337  0.18682597  1  0.089609  0  0.104637  0.116785  0  1.001852  0
H  H48  1  0.61103040  0.33890687  0.07996281  1  0.064543  0  0.096459  0.09985  0  1.028706  0
H  H49  1  0.38897335  0.66109476  0.92003966  1  0.0645  0  0.096421  0.099762  0  1.028725  0
H  H50  1  0.75338842  0.74134663  0.34663194  1  0.063664  0  0.097019  0.10997  0  1.018644  0
H  H51  1  0.24660697  0.25865430  0.65336899  1  0.063615  0  0.097001  0.109952  0  1.018656  0
H  H52  1  0.86903888  0.69814069  0.59705718  1  0.119599  0  0.132067  0.105803  0  0.961961  0
H  H53  1  0.13095990  0.30185816  0.40294216  1  0.119604  0  0.132073  0.105811  0  0.961988  0
H  H54  1  0.72301364  0.60401109  0.06851546  1  0.098812  0  0.103574  0.113463  0  1.001926  0
H  H55  1  0.27698730  0.39598985  0.93148530  1  0.098811  0  0.103591  0.113502  0  1.00191  0
H  H56  1  0.07682228  0.88690645  0.83418600  1  0.153947  0  0.124837  0.104678  0  1.009352  0
H  H57  1  0.92318132  0.11309170  0.16581407  1  0.153998  0  0.124841  0.10469  0  1.009281  0
H  H58  1  0.71336894  0.64900608  0.99487437  1  0.053824  0  0.092644  0.128065  0  0.997023  0
H  H59  1  0.28663058  0.35099416  0.00512688  1  0.053813  0  0.09263  0.128073  0  0.997031  0
H  H60  1  0.73419694  0.55788804  0.94893922  1  0.046931  0  0.093108  0.1302  0  0.997734  0
H  H61  1  0.26580478  0.44211499  0.05106215  1  0.04691  0  0.093087  0.130181  0  0.997775  0
H  H62  1  0.62071838  0.59692610  0.94839857  1  0.046282  0  0.095031  0.135947  0  0.988641  0
H  H63  1  0.37928332  0.40307623  0.05160274  1  0.046284  0  0.095031  0.135934  0  0.988578  0
H  H64  1  0.44558807  0.04672358  0.47849470  1  0.037743  0  0.083161  0.11517  0  1.04308  0
H  H65  1  0.55440999  0.95327457  0.52150381  1  0.037593  0  0.083169  0.115154  0  1.042985  0
H  H66  1  0.34315313  0.06081396  0.43751435  1  0.053615  0  0.092317  0.130529  0  0.987612  0
H  H67  1  0.65684565  0.93918488  0.56248430  1  0.053579  0  0.092303  0.130508  0  0.987645  0
H  H68  1  0.40936372  0.96215780  0.42558605  1  0.063597  0  0.093165  0.137477  0  1.01548  0
H  H69  1  0.59063291  0.03783965  0.57441296  1  0.063656  0  0.093163  0.137446  0  1.015506  0
H  H70  1  0.80094337  0.65327124  0.50978923  1  0.06655  0  0.114587  0.122605  0  0.97884  0
H  H71  1  0.19905625  0.34673108  0.49021051  1  0.066587  0  0.114604  0.122616  0  0.978811  0
H  H72  1  0.12034557  0.92942377  0.92338039  1  0.086853  0  0.112492  0.120017  0  0.983813  0
H  H73  1  0.87965801  0.07057369  0.07661928  1  0.086755  0  0.112525  0.120087  0  0.983657  0
H  H74  1  0.00221221  0.61405371  0.81636825  1  0.072563  0  0.102077  0.113995  0  1.006789  0
H  H75  1  0.99779088  0.38594861  0.18363182  1  0.072589  0  0.102094  0.114052  0  1.006804  0
H  H76  1  0.54196274  0.22996543  0.01265999  1  0.035007  0  0.089173  0.121862  0  1.017466  0
H  H77  1  0.45803534  0.77003341  0.98733928  1  0.035023  0  0.089177  0.121838  0  1.01751  0
H  H78  1  0.47434987  0.28628310  0.96972293  1  0.026349  0  0.09379  0.132426  0  0.992911  0
H  H79  1  0.52565331  0.71372131  0.03027700  1  0.02637  0  0.093798  0.132405  0  0.992909  0
H  H80  1  0.57667886  0.23196846  0.95772778  1  0.054356  0  0.090524  0.130397  0  1.025918  0
H  H81  1  0.42332356  0.76803456  0.04227298  1  0.054143  0  0.090532  0.130406  0  1.02591  0
H  H82  1  0.68966932  0.27973490  0.46553309  1  -0.021841  0  0.083462  0.11471  0  1.043097  0
H  H83  1  0.31032610  0.72026672  0.53446688  1  -0.021859  0  0.083444  0.114671  0  1.043119  0
H  H84  1  0.72942793  0.25287613  0.41048384  1  0.056936  0  0.092133  0.135915  0  1.018861  0
H  H85  1  0.27056752  0.74712619  0.58951653  1  0.056834  0  0.09213  0.1359  0  1.018852  0
H  H86  1  0.64575992  0.33684579  0.41798077  1  0.07069  0  0.092464  0.137665  0  1.009444  0
H  H87  1  0.35423405  0.66315444  0.58201824  1  0.07031  0  0.09243  0.13764  0  1.009512  0
H  H88  1  0.86628681  0.49156904  0.81771017  1  0.090264  0  0.103955  0.118033  0  0.996949  0
H  H89  1  0.13370885  0.50843815  0.18229067  1  0.090212  0  0.103963  0.118054  0  0.99694  0
H  H90  1  0.35704125  0.04239277  0.93099195  1  0.036508  0  0.092343  0.133163  0  1.01081  0
H  H91  1  0.64295548  0.95760677  0.06900794  1  0.036541  0  0.092333  0.133167  0  1.010751  0
H  H92  1  0.36775891  0.13329157  0.98155988  1  0.018638  0  0.093347  0.130732  0  0.991202  0
H  H93  1  0.63223917  0.86670727  0.01844008  1  0.018621  0  0.093365  0.130792  0  0.991207  0
H  H94  1  0.46257988  0.06241771  0.97299419  1  0.042507  0  0.090271  0.130013  0  1.028704  0
H  H95  1  0.53741824  0.93758183  0.02700446  1  0.04247  0  0.090273  0.130034  0  1.028717  0
H  H96  1  0.01496009  0.53734804  0.47000477  1  0.034731  0  0.081999  0.113006  0  1.05259  0
H  H97  1  0.98503730  0.46265080  0.52999443  1  0.034725  0  0.081962  0.11295  0  1.05262  0
H  H98  1  0.95863726  0.44625635  0.42398261  1  0.060885  0  0.092608  0.136337  0  1.014634  0
H  H99  1  0.04136221  0.55374250  0.57601645  1  0.060904  0  0.092607  0.136349  0  1.014657  0
H  H100  1  0.05510596  0.50849859  0.41538696  1  0.051986  0  0.09217  0.133124  0  0.996811  0
H  H101  1  0.94489221  0.49150234  0.58461217  1  0.051965  0  0.092188  0.133177  0  0.996776  0
H  H102  1  0.17926376  0.74517203  0.01300183  1  0.036043  0  0.089877  0.125478  0  1.004378  0
H  H103  1  0.82073504  0.25482751  0.98699826  1  0.036048  0  0.08989  0.125471  0  1.00439  0
H  H104  1  0.12557761  0.80066602  0.96639434  1  0.009165  0  0.091559  0.126742  0  1.002809  0
H  H105  1  0.87442267  0.19933561  0.03360643  1  0.009123  0  0.091577  0.126771  0  1.002727  0
H  H106  1  0.22149537  0.73112696  0.95894967  1  0.065025  0  0.089574  0.127967  0  1.018012  0
H  H107  1  0.77850196  0.26887049  0.04104905  1  0.065059  0  0.08959  0.127945  0  1.018056  0
H  H108  1  0.42775579  0.07839180  0.06427330  1  0.099734  0  0.101709  0.109405  0  1.015537  0
H  H109  1  0.57223957  0.92160844  0.93572687  1  0.099716  0  0.101718  0.109381  0  1.01552  0
H  H110  1  0.45712351  0.36419907  0.82242132  1  0.138242  0  0.122364  0.099353  0  0.99787  0
H  H111  1  0.54287686  0.63580465  0.17758033  1  0.138384  0  0.122398  0.099395  0  0.997973  0
H  H112  1  0.46266852  0.41109571  0.90947504  1  0.11113  0  0.104661  0.115028  0  1.045025  0
H  H113  1  0.53733312  0.58890523  0.09052648  1  0.111096  0  0.104674  0.115063  0  1.044977  0
H  H114  1  0.82939357  0.82153967  0.47797622  1  0.012161  0  0.085995  0.118867  0  1.029811  0
H  H115  1  0.17060671  0.17846196  0.52202387  1  0.012183  0  0.085974  0.118848  0  1.02981  0
H  H116  1  0.80198659  0.86420545  0.42400080  1  0.060975  0  0.092319  0.137711  0  1.008041  0
H  H117  1  0.19801357  0.13579340  0.57599901  1  0.060959  0  0.092321  0.137718  0  1.008033  0
H  H118  1  0.71928213  0.79447019  0.43993359  1  0.015265  0  0.090817  0.126706  0  0.999557  0
H  H119  1  0.28071751  0.20553283  0.56006725  1  0.01527  0  0.090833  0.12675  0  0.999435  0
C  C120  1  0.92922129  0.68573791  0.48826210  1  -0.012256  0  0.021832  0.143254  0  3.989302  0
C  C121  1  0.07077893  0.31426232  0.51173750  1  -0.012338  0  0.021847  0.143291  0  3.989299  0
C  C122  1  0.83462367  0.61852172  0.33711606  1  -0.021436  0  -0.009939  0.057019  0  4.089467  0
C  C123  1  0.16537389  0.38148130  0.66288526  1  -0.021807  0  -0.009877  0.057176  0  4.089351  0
C  C124  1  0.46938641  0.08651359  0.41280574  1  -0.044698  0  -0.007638  0.132868  0  3.966837  0
C  C125  1  0.53061306  0.91348525  0.58719332  1  -0.044753  0  -0.007612  0.132903  0  3.966732  0
C  C126  1  0.44815008  0.06225397  0.36333214  1  -0.022168  0  -0.084616  -0.163867  0  3.897683  0
C  C127  1  0.55184939  0.93774487  0.63666692  1  -0.02227  0  -0.084641  -0.163996  0  3.897697  0
C  C128  1  0.52350115  0.25279330  0.56171417  1  0.467701  0  0.054681  0.103346  0  3.931475  0
C  C129  1  0.47650028  0.74720276  0.43828653  1  0.466158  0  0.054701  0.103529  0  3.931209  0
C  C130  1  0.49603208  0.10474907  0.33492933  1  -0.028709  0  -0.009421  0.057582  0  4.088917  0
C  C131  1  0.50396468  0.89525117  0.66506994  1  -0.028633  0  -0.009434  0.057613  0  4.088861  0
C  C132  1  0.24027394  0.67945353  0.68832858  1  1.583336  0  0.204475  0.596391  0  4.228614  0
C  C133  1  0.75972183  0.32053974  0.31166721  1  1.583301  0  0.20463  0.596609  0  4.228278  0
C  C134  1  0.80357825  0.59267474  0.28569570  1  0.493841  0  0.130818  0.133018  0  3.978669  0
C  C135  1  0.19642142  0.40732898  0.71430624  1  0.494365  0  0.130677  0.13269  0  3.979106  0
C  C136  1  0.97697955  0.90396883  0.72352845  1  1.585354  0  0.204699  0.603515  0  4.22368  0
C  C137  1  0.02302195  0.09602862  0.27647135  1  1.585318  0  0.204719  0.603501  0  4.223662  0
C  C138  1  0.68059109  0.34286396  0.85877635  1  0.512685  0  0.052276  0.094632  0  3.954968  0
C  C139  1  0.31940989  0.65713767  0.14122483  1  0.512772  0  0.052251  0.094662  0  3.954885  0
C  C140  1  0.79720403  0.09789122  0.73784175  1  -0.237266  0  -0.02518  -0.116719  0  3.981765  0
C  C141  1  0.20279326  0.90210554  0.26215828  1  -0.237256  0  -0.025238  -0.117578  0  3.982842  0
C  C142  1  0.29711814  0.83891247  0.84633403  1  0.475024  0  0.056557  0.098793  0  3.941711  0
C  C143  1  0.70288700  0.16108916  0.15366548  1  0.475099  0  0.056558  0.098798  0  3.941552  0
C  C144  1  0.34937249  0.06370475  0.62916796  1  -0.037388  0  -0.100456  -0.116935  0  4.032924  0
C  C145  1  0.65062641  0.93629688  0.37083268  1  -0.03742  0  -0.100516  -0.116966  0  4.032805  0
C  C146  1  0.75561381  0.40509302  0.72798370  1  1.594502  0  0.206773  0.604338  0  4.212814  0
C  C147  1  0.24438384  0.59491208  0.27201646  1  1.594833  0  0.206696  0.604207  0  4.212705  0
C  C148  1  0.19973673  0.92482827  0.68433196  1  1.59851  0  0.203342  0.599273  0  4.225278  0
C  C149  1  0.80026329  0.07516709  0.31566786  1  1.59862  0  0.203308  0.599124  0  4.225361  0
C  C150  1  0.26240414  0.99223611  0.67236934  1  -0.213403  0  -0.027125  -0.124276  0  3.982561  0
C  C151  1  0.73759742  0.00776274  0.32763095  1  -0.213464  0  -0.027059  -0.124162  0  3.982708  0
C  C152  1  0.38679924  0.10799098  0.67533215  1  -0.165431  0  -0.026331  -0.1244  0  3.975979  0
C  C153  1  0.61319966  0.89201064  0.32466814  1  -0.16523  0  -0.0263  -0.124357  0  3.976166  0
C  C154  1  0.89423694  0.66085249  0.43613800  1  0.00852  0  -0.015851  -0.085228  0  3.92916  0
C  C155  1  0.10575981  0.33914774  0.56386196  1  0.008549  0  -0.015805  -0.085159  0  3.92907  0
C  C156  1  0.72263447  0.16095227  0.72503874  1  1.629304  0  0.209287  0.604202  0  4.216519  0
C  C157  1  0.27736428  0.83904587  0.27496156  1  1.629308  0  0.209378  0.604492  0  4.216384  0
C  C158  1  0.27746715  0.99834011  0.62743127  1  -0.034283  0  -0.101211  -0.117796  0  4.034865  0
C  C159  1  0.72253377  0.00166013  0.37256840  1  -0.034276  0  -0.101222  -0.117818  0  4.034792  0
C  C160  1  0.01755338  0.65551248  0.72577918  1  1.608839  0  0.207016  0.601323  0  4.22164  0
C  C161  1  0.98244968  0.34448915  0.27422082  1  1.608827  0  0.206968  0.601216  0  4.221659  0
C  C162  1  0.62388860  0.42478086  0.98023128  1  -0.008987  0  -0.009417  -0.066597  0  3.895511  0
C  C163  1  0.37611292  0.57521729  0.01977100  1  -0.054776  0  -0.009395  -0.066466  0  3.895338  0
C  C164  1  0.92757627  0.58187839  0.40932183  1  0.056509  0  -0.006693  0.135008  0  3.966402  0
C  C165  1  0.07242108  0.41811975  0.59067834  1  0.056508  0  -0.006637  0.135003  0  3.966403  0
C  C166  1  0.67097414  0.19662973  0.56293405  1  0.443282  0  0.058435  0.094071  0  3.955202  0
C  C167  1  0.32902738  0.80336842  0.43706514  1  0.44288  0  0.058444  0.093991  0  3.9552  0
C  C168  1  0.49994464  0.22505368  0.51263914  1  -0.029155  0  -0.080398  -0.18422  0  3.950076  0
C  C169  1  0.50005196  0.77494308  0.48736186  1  -0.027665  0  -0.08048  -0.184322  0  3.950272  0
C  C170  1  0.46466208  0.17820464  0.68960341  1  1.60946  0  0.204947  0.598729  0  4.2252  0
C  C171  1  0.53533959  0.82179699  0.31039783  1  1.609259  0  0.204914  0.598683  0  4.22528  0
C  C172  1  0.42476323  0.48926307  0.67808563  1  -0.246766  0  -0.024629  -0.113179  0  3.969517  0
C  C173  1  0.57524104  0.51073439  0.32191239  1  -0.246359  0  -0.024626  -0.113198  0  3.969537  0
C  C174  1  0.56512439  0.18148942  0.48719273  1  0.021638  0  0.022137  0.14553  0  3.982061  0
C  C175  1  0.43487364  0.81850803  0.51280572  1  0.02169  0  0.022197  0.145512  0  3.982468  0
C  C176  1  0.89651178  0.56147789  0.36016490  1  -0.082246  0  -0.084509  -0.16275  0  3.906169  0
C  C177  1  0.10348437  0.43852443  0.63983520  1  -0.082199  0  -0.084506  -0.162687  0  3.906113  0
C  C178  1  0.67391047  0.47258319  0.07972379  1  -0.013345  0  -0.015997  0.052394  0  4.107284  0
C  C179  1  0.32609467  0.52741844  0.92027710  1  -0.012973  0  -0.015903  0.052479  0  4.107158  0
C  C180  1  0.70560053  0.49834877  0.13127910  1  0.434019  0  0.116344  0.113737  0  4.013046  0
C  C181  1  0.29440756  0.50165704  0.86872348  1  0.433442  0  0.116311  0.113599  0  4.0133  0
C  C182  1  0.91496876  0.97893237  0.73703359  1  -0.214318  0  -0.026842  -0.118957  0  3.983736  0
C  C183  1  0.08502853  0.02106439  0.26296781  1  -0.214537  0  -0.026931  -0.119133  0  3.983828  0
C  C184  1  0.47135322  0.07717290  0.28335374  1  0.444997  0  0.127368  0.124667  0  4.000914  0
C  C185  1  0.52864700  0.92282734  0.71664621  1  0.445133  0  0.127367  0.124657  0  4.000912  0
C  C186  1  0.77459634  0.50490128  0.21496305  1  0.412879  0  0.093054  0.077969  0  4.119267  0
C  C187  1  0.22540958  0.49510245  0.78503879  1  0.412832  0  0.093106  0.0781  0  4.119224  0
C  C188  1  0.30453016  0.60575957  0.67638032  1  -0.255429  0  -0.026956  -0.126147  0  3.982335  0
C  C189  1  0.69546835  0.39423301  0.32361566  1  -0.255777  0  -0.026961  -0.126315  0  3.982472  0
C  C190  1  0.68977650  0.36875230  0.90777393  1  -0.090351  0  -0.083903  -0.192953  0  3.971373  0
C  C191  1  0.31022236  0.63124863  0.09222698  1  -0.090373  0  -0.083855  -0.192902  0  3.971135  0
C  C192  1  0.84856827  0.09739465  0.78286025  1  0.011304  0  -0.107044  -0.121232  0  4.042877  0
C  C193  1  0.15142821  0.90259933  0.21714047  1  0.011233  0  -0.107086  -0.121054  0  4.042977  0
C  C194  1  0.49817024  0.42522159  0.69168744  1  1.602324  0  0.205158  0.60283  0  4.219886  0
C  C195  1  0.50183210  0.57477934  0.30831003  1  1.602318  0  0.205184  0.602842  0  4.219632  0
C  C196  1  0.65233274  0.16708694  0.51377877  1  0.016571  0  -0.07818  -0.18394  0  3.959083  0
C  C197  1  0.34766878  0.83291121  0.48622007  1  0.016676  0  -0.07822  -0.183844  0  3.959216  0
C  C198  1  0.37041756  0.48317805  0.63311796  1  0.029409  0  -0.104277  -0.122287  0  4.024333  0
C  C199  1  0.62958385  0.51681731  0.36687890  1  0.029208  0  -0.104359  -0.122358  0  4.024412  0
C  C200  1  0.95852893  0.58746949  0.73962169  1  -0.165907  0  -0.027383  -0.119045  0  3.980914  0
C  C201  1  0.04147204  0.41253214  0.26037880  1  -0.165911  0  -0.027313  -0.118812  0  3.980754  0
C  C202  1  0.26393217  0.89386838  0.92471056  1  -0.002246  0  0.019046  0.137968  0  3.993472  0
C  C203  1  0.73607138  0.10612838  0.07528938  1  -0.002202  0  0.019029  0.138118  0  3.993276  0
C  C204  1  0.54220302  0.15364023  0.43463147  1  -0.049893  0  -0.015635  -0.081718  0  3.916425  0
C  C205  1  0.45779428  0.84635653  0.56536856  1  -0.050003  0  -0.01556  -0.081585  0  3.916365  0
C  C206  1  0.73927220  0.58721331  0.20180582  1  0.343337  0  0.085978  0.067158  0  4.135475  0
C  C207  1  0.26073873  0.41279389  0.79819442  1  0.343706  0  0.086091  0.067262  0  4.135282  0
C  C208  1  0.30083107  0.54878825  0.63233943  1  0.074222  0  -0.097601  -0.108638  0  4.032401  0
C  C209  1  0.69916747  0.45120502  0.36765731  1  0.074417  0  -0.097525  -0.108483  0  4.03246  0
C  C210  1  0.28823232  0.88746605  0.05532240  1  0.001495  0  -0.1007  -0.209495  0  3.98062  0
C  C211  1  0.71176640  0.11253141  0.94467714  1  0.001596  0  -0.100787  -0.209529  0  3.980699  0
C  C212  1  0.25830011  0.86464477  0.00615397  1  -0.044284  0  -0.006887  0.140729  0  3.971681  0
C  C213  1  0.74170066  0.13535199  0.99384639  1  -0.044302  0  -0.006937  0.140641  0  3.971815  0
C  C214  1  0.59194421  0.19604790  0.40639459  1  -0.003926  0  -0.006244  0.142145  0  3.965274  0
C  C215  1  0.40805254  0.80395233  0.59360468  1  -0.003784  0  -0.006252  0.142008  0  3.96546  0
C  C216  1  0.32714843  0.86096570  0.89543271  1  0.006172  0  -0.080631  -0.185704  0  3.950564  0
C  C217  1  0.67285388  0.13903454  0.10456674  1  0.006468  0  -0.080591  -0.185703  0  3.950432  0
C  C218  1  0.02152125  0.71866829  0.50598589  1  0.027524  0  -0.077962  -0.180216  0  3.944968  0
C  C219  1  0.97847836  0.28133404  0.49401419  1  0.0274  0  -0.077945  -0.180197  0  3.944847  0
C  C220  1  0.61148590  0.39480088  0.92766935  1  0.005951  0  0.019346  0.140762  0  3.974948  0
C  C221  1  0.38851637  0.60519866  0.07233141  1  0.006017  0  0.019358  0.140731  0  3.974879  0
C  C222  1  0.56733953  0.17136429  0.35693520  1  0.058259  0  -0.092426  -0.184455  0  3.932051  0
C  C223  1  0.43265731  0.82863803  0.64306462  1  0.058554  0  -0.092342  -0.184289  0  3.932013  0
C  C224  1  0.83546816  0.47302810  0.74074512  1  -0.209811  0  -0.025479  -0.115107  0  3.979057  0
C  C225  1  0.16453220  0.52697562  0.25925551  1  -0.209909  0  -0.025469  -0.11522  0  3.979065  0
C  C226  1  0.05324963  0.74317370  0.55475745  1  0.401846  0  0.053956  0.097719  0  3.938916  0
C  C227  1  0.94674579  0.25682792  0.44524183  1  0.401882  0  0.05387  0.097631  0  3.938945  0
C  C228  1  0.91617970  0.02965431  0.78235520  1  0.040254  0  -0.102861  -0.111696  0  4.023505  0
C  C229  1  0.08381476  0.97034106  0.21764546  1  0.040569  0  -0.102916  -0.111655  0  4.023246  0
C  C230  1  0.66588029  0.51344087  0.00167527  1  -0.006816  0  -0.00875  0.132411  0  3.98292  0
C  C231  1  0.33412130  0.48655867  0.99832474  1  0.038724  0  -0.008747  0.132399  0  3.98296  0
C  C232  1  0.29268342  0.91914081  0.97719300  1  -0.035158  0  -0.01663  -0.0837  0  3.92213  0
C  C233  1  0.70731949  0.08085734  0.02280632  1  -0.0352  0  -0.016664  -0.083809  0  3.922241  0
C  C234  1  0.62735946  0.38709926  0.05789135  1  0.019042  0  -0.100825  -0.20882  0  3.971247  0
C  C235  1  0.37264423  0.61290099  0.94211064  1  0.01898  0  -0.100824  -0.208714  0  3.971103  0
C  C236  1  0.60008883  0.36301466  0.00837643  1  -0.03729  0  -0.006827  0.142673  0  3.967604  0
C  C237  1  0.39991492  0.63698698  0.99162570  1  -0.037289  0  -0.006828  0.14255  0  3.967427  0
C  C238  1  0.80252134  0.69683122  0.36408490  1  -0.071752  0  -0.094382  -0.190089  0  3.936378  0
C  C239  1  0.19747610  0.30316902  0.63591581  1  -0.071749  0  -0.094408  -0.190171  0  3.936539  0
C  C240  1  0.91006977  0.70378839  0.57001376  1  0.44424  0  0.060089  0.102119  0  3.932471  0
C  C241  1  0.08993049  0.29621254  0.42998591  1  0.444162  0  0.060106  0.102152  0  3.932624  0
C  C242  1  0.83080645  0.71857762  0.41350932  1  0.008346  0  -0.008331  0.137589  0  3.971426  0
C  C243  1  0.16919232  0.28142123  0.58649207  1  0.00839  0  -0.008355  0.137528  0  3.971434  0
C  C244  1  0.68949190  0.53640424  0.05121864  1  -0.1212  0  -0.093684  -0.19281  0  3.950654  0
C  C245  1  0.31051037  0.46359530  0.94878349  1  -0.121174  0  -0.093699  -0.192833  0  3.950483  0
C  C246  1  0.14711087  0.87987415  0.85321857  1  0.537339  0  0.054657  0.102176  0  3.919571  0
C  C247  1  0.85289207  0.12012470  0.14678082  1  0.537317  0  0.054683  0.102326  0  3.919619  0
C  C248  1  0.35326833  0.99737762  0.99800422  1  -0.011084  0  -0.006272  0.133594  0  3.984276  0
C  C249  1  0.64673114  0.00262123  0.00199655  1  -0.011364  0  -0.006297  0.133582  0  3.984129  0
C  C250  1  0.40708240  0.99608483  0.21402677  1  0.436408  0  0.097188  0.089167  0  4.099663  0
C  C251  1  0.59291912  0.00391332  0.78597310  1  0.436537  0  0.097248  0.089222  0  4.099559  0
C  C252  1  0.68473989  0.58297430  0.97204500  1  -0.074706  0  -0.234402  -0.406378  0  3.971846  0
C  C253  1  0.31525895  0.41702593  0.02795516  1  -0.074689  0  -0.234384  -0.406375  0  3.971799  0
C  C254  1  0.41472797  0.03696413  0.44054594  1  -0.104034  0  -0.242992  -0.418609  0  3.977647  0
C  C255  1  0.58526999  0.96303193  0.55945272  1  -0.103899  0  -0.242999  -0.418538  0  3.97766  0
C  C256  1  0.87309054  0.67880254  0.52161474  1  0.042502  0  -0.076605  -0.178894  0  3.941825  0
C  C257  1  0.12690552  0.32119769  0.47838481  1  0.042584  0  -0.076676  -0.178955  0  3.941931  0
C  C258  1  0.17201659  0.90291859  0.90241493  1  -0.156254  0  -0.079946  -0.182386  0  3.957892  0
C  C259  1  0.82798771  0.09707956  0.09758555  1  -0.156271  0  -0.080035  -0.182704  0  3.957869  0
C  C260  1  0.95515777  0.57531892  0.78535128  1  -0.030647  0  -0.100291  -0.108842  0  4.013581  0
C  C261  1  0.04484046  0.42468340  0.21464867  1  -0.031132  0  -0.100409  -0.109116  0  4.013646  0
C  C262  1  0.54580987  0.27305726  0.98601503  1  -0.044952  0  -0.241725  -0.412641  0  3.966745  0
C  C263  1  0.45419180  0.72694437  0.01398587  1  -0.044573  0  -0.241747  -0.41258  0  3.966834  0
C  C264  1  0.35077788  0.96326977  0.07673189  1  -0.015799  0  -0.013497  0.061585  0  4.095442  0
C  C265  1  0.64921948  0.03672838  0.92326896  1  -0.043535  0  -0.01336  0.061614  0  4.095536  0
C  C266  1  0.66838354  0.26974324  0.42681003  1  -0.046387  0  -0.245464  -0.419663  0  3.958153  0
C  C267  1  0.33161186  0.73025769  0.57319021  1  -0.046124  0  -0.24545  -0.419567  0  3.958254  0
C  C268  1  0.45182820  0.06507631  0.19739124  1  0.35209  0  0.086182  0.069336  0  4.141608  0
C  C269  1  0.54817196  0.93492254  0.80260857  1  0.352053  0  0.086142  0.069283  0  4.14168  0
C  C270  1  0.88396477  0.51078457  0.78602154  1  0.009604  0  -0.10369  -0.1171  0  4.021456  0
C  C271  1  0.11603427  0.48922054  0.21397875  1  0.010218  0  -0.103669  -0.117046  0  4.021346  0
C  C272  1  0.38654365  0.06158310  0.96905594  1  -0.031874  0  -0.242114  -0.412376  0  3.956017  0
C  C273  1  0.61345440  0.93841504  0.03094326  1  -0.031581  0  -0.24213  -0.412489  0  3.956063  0
C  C274  1  0.99274743  0.51592059  0.43141381  1  -0.086693  0  -0.244873  -0.419267  0  3.965725  0
C  C275  1  0.00724999  0.48407895  0.56858580  1  -0.086744  0  -0.244877  -0.419299  0  3.965693  0
C  C276  1  0.19282162  0.78125515  0.98501340  1  -0.055601  0  -0.23958  -0.406029  0  3.967577  0
C  C277  1  0.80717785  0.21874370  0.01498566  1  -0.055544  0  -0.2396  -0.405971  0  3.967502  0
C  C278  1  0.38137679  0.01803343  0.04745092  1  -0.03359  0  -0.092484  -0.185071  0  3.942487  0
C  C279  1  0.61862066  0.98196680  0.95254842  1  -0.006023  0  -0.092477  -0.184945  0  3.942319  0
C  C280  1  0.38280836  0.98679184  0.12812129  1  0.428841  0  0.111568  0.111249  0  4.016778  0
C  C281  1  0.61718903  0.01320700  0.87187826  1  0.428934  0  0.111574  0.11129  0  4.016785  0
C  C282  1  0.52240868  0.36570816  0.84762671  1  0.505551  0  0.062944  0.119734  0  3.894088  0
C  C283  1  0.47759371  0.63429416  0.15237467  1  0.505483  0  0.062944  0.119777  0  3.89409  0
C  C284  1  0.52610817  0.39197553  0.89644638  1  -0.062621  0  -0.079294  -0.176282  0  3.915918  0
C  C285  1  0.47389413  0.60802471  0.10355479  1  -0.062763  0  -0.07937  -0.176417  0  3.915929  0
C  C286  1  0.79411759  0.80396582  0.44064863  1  -0.04144  0  -0.243284  -0.412044  0  3.969973  0
C  C287  1  0.20588194  0.19603441  0.55935228  1  -0.041437  0  -0.243283  -0.412055  0  3.969891  0
S  S288  1  0.39169584  0.57682573  0.71887851  1  0.293291  0  0.097639  0.1624  0  2.899747  0
S  S289  1  0.60830430  0.42317242  0.28111780  1  0.292995  0  0.097571  0.162389  0  2.899817  0
S  S290  1  0.83224245  0.01580447  0.69514533  1  0.27814  0  0.097247  0.164378  0  2.855327  0
S  S291  1  0.16775696  0.98419298  0.30485565  1  0.278168  0  0.097332  0.164804  0  2.855617  0
S  S292  1  0.87639879  0.51784621  0.69766055  1  0.275521  0  0.093528  0.157248  0  2.869111  0
S  S293  1  0.12360218  0.48215542  0.30233994  1  0.275495  0  0.093559  0.157319  0  2.869032  0
S  S294  1  0.33507116  0.06798265  0.71642533  1  0.29283  0  0.101248  0.168034  0  2.915674  0
S  S295  1  0.66492903  0.93201689  0.28357524  1  0.29285  0  0.101299  0.168062  0  2.915704  0
S  S296  1  0.75161067  0.67369501  0.25183460  1  0.244478  0  0.10055  0.07727  0  2.680589  0
S  S297  1  0.24839954  0.32631150  0.74816653  1  0.244232  0  0.100602  0.077364  0  2.680505  0
S  S298  1  0.75710393  0.41731413  0.16506700  1  0.223998  0  0.100225  0.080802  0  2.684594  0
S  S299  1  0.24289849  0.58268890  0.83493547  1  0.223924  0  0.10024  0.080825  0  2.68471  0
S  S300  1  0.51206760  0.14303596  0.24550357  1  0.222496  0  0.097094  0.069251  0  2.704441  0
S  S301  1  0.48792991  0.85696566  0.75449624  1  0.222496  0  0.09706  0.069216  0  2.704525  0
S  S302  1  0.34616247  0.91893932  0.16593319  1  0.235674  0  0.105946  0.087596  0  2.779888  0
S  S303  1  0.65383833  0.08105813  0.83406724  1  0.235573  0  0.105882  0.087495  0  2.779857  0
N  N304  1  0.99870475  0.73551570  0.58631753  1  -1.253302  0  -0.321992  -0.208295  0  3.533575  0
N  N305  1  0.00129556  0.26448662  0.41368193  1  -1.253282  0  -0.321945  -0.208293  0  3.53362  0
N  N306  1  0.60784037  0.23928268  0.58661526  1  -1.232354  0  -0.324913  -0.211648  0  3.521008  0
N  N307  1  0.39216175  0.76071338  0.41338413  1  -1.231972  0  -0.324872  -0.211631  0  3.520819  0
N  N308  1  0.59817583  0.34200850  0.82909936  1  -1.240332  0  -0.321073  -0.20787  0  3.527644  0
N  N309  1  0.40182378  0.65799382  0.17090175  1  -1.240348  0  -0.321122  -0.207967  0  3.527769  0
N  N310  1  0.20866072  0.84847764  0.82559174  1  -1.231744  0  -0.319618  -0.201561  0  3.520104  0
N  N311  1  0.79134297  0.15152259  0.17440750  1  -1.231923  0  -0.319615  -0.20164  0  3.520161  0
N  N312  1  0.81137299  0.50825711  0.26129553  1  -1.170626  0  -0.306705  -0.278113  0  3.331131  0
N  N313  1  0.18862732  0.49174521  0.73870565  1  -1.17062  0  -0.306669  -0.27803  0  3.331423  0
N  N314  1  0.70225901  0.58411370  0.15529045  1  -1.167447  0  -0.324905  -0.313141  0  3.328791  0
N  N315  1  0.29775246  0.41589002  0.84471021  1  -1.167197  0  -0.325037  -0.31322  0  3.328748  0
N  N316  1  0.41733211  0.00312909  0.26149910  1  -1.17714  0  -0.3064  -0.273524  0  3.317994  0
N  N317  1  0.58266944  0.99686976  0.73850085  1  -1.177257  0  -0.306424  -0.273546  0  3.317992  0
N  N318  1  0.43853203  0.06023985  0.14980513  1  -1.15222  0  -0.328881  -0.31332  0  3.30919  0
N  N319  1  0.56146536  0.93975899  0.85019476  1  -1.152283  0  -0.328806  -0.313212  0  3.309236  0
O  O320  1  0.68774969  0.20463971  0.75918825  1  -1.169525  0  -0.314098  -0.548038  0  2.358186  0
O  O321  1  0.31224911  0.79535983  0.24081184  1  -1.169505  0  -0.314141  -0.548084  0  2.357997  0
O  O322  1  0.96630412  0.86634709  0.67958826  1  -1.163781  0  -0.325161  -0.546989  0  2.299521  0
O  O323  1  0.03369897  0.13365523  0.32041352  1  -1.163812  0  -0.325167  -0.547037  0  2.299432  0
O  O324  1  0.25848812  0.72931323  0.73019127  1  -1.175281  0  -0.327418  -0.55904  0  2.326401  0
O  O325  1  0.74150910  0.27068144  0.26980513  1  -1.175138  0  -0.327495  -0.559119  0  2.326295  0
O  O326  1  0.48510309  0.21840829  0.73323615  1  -1.168515  0  -0.32512  -0.55087  0  2.315427  0
O  O327  1  0.51489511  0.78159333  0.26676373  1  -1.168426  0  -0.325096  -0.550877  0  2.315255  0
O  O328  1  0.14483556  0.87466828  0.64959278  1  -1.177707  0  -0.318613  -0.546213  0  2.320846  0
O  O329  1  0.85516802  0.12532918  0.35040688  1  -1.177745  0  -0.318609  -0.546141  0  2.320729  0
O  O330  1  0.73312391  0.36528773  0.68425912  1  -1.163087  0  -0.329035  -0.550406  0  2.30251  0
O  O331  1  0.26687183  0.63472155  0.31574159  1  -1.163127  0  -0.329034  -0.550346  0  2.302263  0
O  O332  1  0.08339209  0.69678080  0.75787846  1  -1.173426  0  -0.317758  -0.543604  0  2.34022  0
O  O333  1  0.91660952  0.30321944  0.24212230  1  -1.173337  0  -0.317729  -0.543562  0  2.340149  0
O  O334  1  0.70076982  0.16710425  0.68120310  1  -1.171516  0  -0.324622  -0.552921  0  2.311478  0
O  O335  1  0.29923101  0.83289390  0.31879740  1  -1.171578  0  -0.324653  -0.552933  0  2.311456  0
O  O336  1  0.51748414  0.41728507  0.73526242  1  -1.163244  0  -0.32388  -0.547888  0  2.300266  0
O  O337  1  0.48252170  0.58271656  0.26473579  1  -1.16307  0  -0.323856  -0.547884  0  2.300405  0
O  O338  1  0.17162760  0.68665712  0.65542282  1  -1.173674  0  -0.315856  -0.5489  0  2.332028  0
O  O339  1  0.82836947  0.31333407  0.34457393  1  -1.173627  0  -0.315957  -0.549019  0  2.331951  0
O  O340  1  0.71603444  0.39302328  0.76178206  1  -1.163872  0  -0.318162  -0.546457  0  2.319892  0
O  O341  1  0.28396451  0.60697974  0.23821906  1  -1.164186  0  -0.318097  -0.546347  0  2.319997  0
O  O342  1  0.20763783  0.92136831  0.72832357  1  -1.153885  0  -0.325001  -0.550208  0  2.324347  0
O  O343  1  0.79236162  0.07862983  0.27167439  1  -1.153937  0  -0.324991  -0.550164  0  2.32424  0
O  O344  1  0.99601100  0.66818216  0.68283292  1  -1.168283  0  -0.325144  -0.556292  0  2.32285  0
O  O345  1  0.00399400  0.33181600  0.31716797  1  -1.168312  0  -0.325157  -0.556296  0  2.322743  0
O  O346  1  0.03704053  0.88372683  0.75731502  1  -1.180674  0  -0.31586  -0.552424  0  2.35654  0
O  O347  1  0.96295969  0.11627341  0.24268596  1  -1.180618  0  -0.315854  -0.552346  0  2.356514  0
O  O348  1  0.53386354  0.38185237  0.65778432  1  -1.169667  0  -0.316518  -0.548798  0  2.34  0
O  O349  1  0.46613720  0.61814369  0.34221254  1  -1.169901  0  -0.316538  -0.548803  0  2.339798  0
O  O350  1  0.50451894  0.19195726  0.65616583  1  -1.166264  0  -0.316121  -0.54947  0  2.347124  0
O  O351  1  0.49548191  0.80804159  0.34383576  1  -1.166311  0  -0.316147  -0.549485  0  2.347188  0
