# generated using pymatgen
data_AlH12(C9O2)3
_symmetry_space_group_name_H-M   'P 1'
_cell_length_a   3.93289787
_cell_length_b   24.49442740
_cell_length_c   24.49437914
_cell_angle_alpha   119.99983136
_cell_angle_beta   89.99969669
_cell_angle_gamma   90.00137786
_symmetry_Int_Tables_number   1
_chemical_formula_structural   AlH12(C9O2)3
_chemical_formula_sum   'Al2 H24 C54 O12'
_cell_volume   2043.51469960
_cell_formula_units_Z   2
loop_
 _symmetry_equiv_pos_site_id
 _symmetry_equiv_pos_as_xyz
  1  'x, y, z'
loop_
 _atom_site_type_symbol
 _atom_site_label
 _atom_site_symmetry_multiplicity
 _atom_site_fract_x
 _atom_site_fract_y
 _atom_site_fract_z
 _atom_site_occupancy
 _atom_site_pbe_bader_charge
 _atom_site_pbe_bader_spin_density
 _atom_site_pbe_cm5_charge
 _atom_site_pbe_ddec_charge
 _atom_site_pbe_ddec_spin_density
 _atom_site_pbe_ddec_sum_bond_order
 _atom_site_pbe_magmom
Al  Al0  1  0.00000894  0.49999885  0.50000092  1  2.502587  0  0.42264  1.587894  0  2.578243  0
Al  Al1  1  0.00000834  0.16666590  0.83333518  1  2.502832  0  0.422654  1.588024  0  2.578079  0
H  H2  1  0.54558323  0.32561435  0.49936092  1  0.070586  0  0.105901  0.110927  0  0.991125  0
H  H3  1  0.51424490  0.22355465  0.49865058  1  0.040448  0  0.099394  0.098268  0  0.997024  0
H  H4  1  0.45440626  0.50063555  0.67438342  1  0.070672  0  0.105856  0.110863  0  0.991217  0
H  H5  1  0.48575801  0.50134630  0.77644311  1  0.04039  0  0.099427  0.098346  0  0.997032  0
H  H6  1  0.54556078  0.34104886  0.83396774  1  0.070585  0  0.105903  0.110881  0  0.991322  0
H  H7  1  0.51420997  0.44310786  0.83468595  1  0.040337  0  0.099353  0.098252  0  0.996941  0
H  H8  1  0.45447265  0.16603156  0.65895223  1  0.070585  0  0.105887  0.110858  0  0.991425  0
H  H9  1  0.48579733  0.16531468  0.55689151  1  0.040392  0  0.099354  0.098252  0  0.997034  0
H  H10  1  0.54556848  0.67375159  0.67438805  1  0.071059  0  0.105908  0.110911  0  0.991286  0
H  H11  1  0.51422602  0.77509260  0.77644391  1  0.039781  0  0.099385  0.098275  0  0.996929  0
H  H12  1  0.45445042  0.67374435  0.49936493  1  0.02808  0  0.105887  0.110932  0  0.991273  0
H  H13  1  0.48579126  0.77509065  0.49864860  1  -0.000299  0  0.099375  0.098321  0  0.996958  0
H  H14  1  0.54555231  0.99292093  0.65894951  1  0.071083  0  0.105899  0.110903  0  0.991189  0
H  H15  1  0.51421580  0.89157207  0.55688825  1  0.039801  0  0.099389  0.098301  0  0.996939  0
H  H16  1  0.45441545  0.99291845  0.83397120  1  0.028117  0  0.1059  0.110883  0  0.991174  0
H  H17  1  0.48578155  0.89157658  0.83468573  1  -0.000123  0  0.099355  0.098264  0  0.996908  0
H  H18  1  0.54554868  0.50063672  0.32625504  1  0.027956  0  0.105902  0.110928  0  0.991182  0
H  H19  1  0.51421228  0.50135215  0.22490923  1  -0.000307  0  0.09936  0.098305  0  0.996914  0
H  H20  1  0.45444988  0.32561583  0.32625197  1  0.071033  0  0.105911  0.110905  0  0.991299  0
H  H21  1  0.48578464  0.22355751  0.22491097  1  0.039737  0  0.099356  0.098257  0  0.996868  0
H  H22  1  0.54557458  0.16602913  0.00708396  1  0.0281  0  0.10591  0.110907  0  0.99125  0
H  H23  1  0.51423201  0.16531801  0.10842852  1  -0.000297  0  0.099417  0.098332  0  0.996999  0
H  H24  1  0.45442100  0.34104830  0.00707758  1  0.07137  0  0.105894  0.110928  0  0.991138  0
H  H25  1  0.48576266  0.44311059  0.10842623  1  0.039856  0  0.099415  0.098364  0  0.996801  0
C  C26  1  0.49999704  0.45138528  0.40277234  1  1.597967  0  0.280335  0.662219  0  4.049108  0
C  C27  1  0.49998942  0.45138214  0.54861361  1  1.544215  0  0.280466  0.66278  0  4.049801  0
C  C28  1  0.50002592  0.59722827  0.54861646  1  1.6006  0  0.280295  0.662404  0  4.049352  0
C  C29  1  0.50002078  0.21528084  0.78472155  1  1.543927  0  0.280261  0.662081  0  4.048795  0
C  C30  1  0.49998173  0.06943898  0.78472014  1  1.546023  0  0.280388  0.662491  0  4.049519  0
C  C31  1  0.50001315  0.21527729  0.93056241  1  1.548474  0  0.280407  0.662642  0  4.049451  0
C  C32  1  0.52443443  0.35055800  0.55061570  1  0.012624  0  -0.079805  -0.14647  0  3.932955  0
C  C33  1  0.51093996  0.31646050  0.58256668  1  0.085789  0  -0.005902  0.078232  0  4.040939  0
C  C34  1  0.50773165  0.24890119  0.55009610  1  0.003685  0  -0.090539  -0.131289  0  4.024091  0
C  C35  1  0.47558311  0.44938049  0.64943934  1  0.01259  0  -0.079654  -0.14624  0  3.932779  0
C  C36  1  0.48909939  0.41742854  0.68353725  1  0.08583  0  -0.005896  0.078261  0  4.040946  0
C  C37  1  0.49228154  0.44990241  0.75109667  1  0.003762  0  -0.090625  -0.131517  0  4.024166  0
C  C38  1  0.52442778  0.31610396  0.78272308  1  0.012285  0  -0.079644  -0.146064  0  3.932917  0
C  C39  1  0.51093197  0.35020008  0.75076604  1  0.085897  0  -0.005929  0.078119  0  4.040401  0
C  C40  1  0.50770737  0.41776441  0.78323647  1  -0.070734  0  -0.090545  -0.131383  0  4.023901  0
C  C41  1  0.47562337  0.21727570  0.68389429  1  0.012606  0  -0.079579  -0.145969  0  3.933131  0
C  C42  1  0.48912026  0.24923132  0.64980096  1  0.085619  0  -0.005893  0.078145  0  4.040301  0
C  C43  1  0.49231000  0.21676155  0.58223337  1  -0.070865  0  -0.090609  -0.131535  0  4.023911  0
C  C44  1  0.49999631  0.41628722  0.58370948  1  -0.06802  0  -0.009189  -0.021934  0  3.999984  0
C  C45  1  0.50003081  0.35007778  0.64992082  1  -0.088786  0  0.006211  0.004571  0  3.904619  0
C  C46  1  0.50002405  0.25038358  0.74962031  1  -0.06805  0  -0.009341  -0.022105  0  3.999872  0
C  C47  1  0.50002515  0.31659137  0.68341062  1  -0.223093  0  0.006281  0.004651  0  3.903997  0
C  C48  1  0.52442620  0.70005246  0.64944243  1  0.022417  0  -0.079715  -0.146241  0  3.93287  0
C  C49  1  0.51091642  0.76610107  0.68353960  1  0.010345  0  -0.005978  0.078068  0  4.040627  0
C  C50  1  0.50771162  0.80119432  0.75109735  1  -0.055929  0  -0.090596  -0.131426  0  4.02381  0
C  C51  1  0.47559879  0.70005034  0.55061535  1  -0.016073  0  -0.079664  -0.146242  0  3.932739  0
C  C52  1  0.48909203  0.76610701  0.58256854  1  0.024567  0  -0.005936  0.078123  0  4.040761  0
C  C53  1  0.49229646  0.80119075  0.55009670  1  -0.047538  0  -0.090612  -0.131514  0  4.023849  0
C  C54  1  0.52440008  0.96661371  0.68389402  1  0.022717  0  -0.079707  -0.146202  0  3.932587  0
C  C55  1  0.51091196  0.90055988  0.64979545  1  0.01054  0  -0.005897  0.078176  0  4.040896  0
C  C56  1  0.50770164  0.86547406  0.58223760  1  -0.05626  0  -0.090565  -0.131416  0  4.023659  0
C  C57  1  0.47557177  0.96661298  0.78271793  1  -0.016393  0  -0.079659  -0.146151  0  3.932861  0
C  C58  1  0.48908406  0.90056489  0.75077093  1  0.024523  0  -0.005956  0.07817  0  4.040829  0
C  C59  1  0.49228457  0.86547288  0.78323637  1  -0.047758  0  -0.090525  -0.13139  0  4.023782  0
C  C60  1  0.50002301  0.66742619  0.58371246  1  0.031771  0  -0.009191  -0.021879  0  3.999938  0
C  C61  1  0.50000395  0.79984482  0.64992060  1  -0.125956  0  0.006284  0.004711  0  3.903951  0
C  C62  1  0.49998176  0.99924357  0.74962106  1  0.084523  0  -0.009259  -0.022045  0  3.999938  0
C  C63  1  0.50000337  0.86682459  0.68341163  1  0.068237  0  0.006262  0.004567  0  3.904231  0
C  C64  1  0.52440053  0.44938729  0.29995143  1  -0.016197  0  -0.079702  -0.146283  0  3.932589  0
C  C65  1  0.51091047  0.41742997  0.23389384  1  0.024642  0  -0.005837  0.078303  0  4.040633  0
C  C66  1  0.50770217  0.44990228  0.19880774  1  -0.047626  0  -0.090583  -0.131498  0  4.023678  0
C  C67  1  0.47559440  0.35055776  0.29994970  1  0.022741  0  -0.079739  -0.146223  0  3.93305  0
C  C68  1  0.48908682  0.31646295  0.23390186  1  0.010121  0  -0.005899  0.078129  0  4.04058  0
C  C69  1  0.49229622  0.24890248  0.19880575  1  -0.055854  0  -0.09058  -0.131371  0  4.023707  0
C  C70  1  0.52442822  0.21727887  0.03338794  1  -0.016187  0  -0.079728  -0.146203  0  3.932813  0
C  C71  1  0.51091529  0.24922896  0.09943553  1  0.024686  0  -0.005956  0.07816  0  4.040511  0
C  C72  1  0.50771864  0.21676148  0.13452740  1  -0.047646  0  -0.090561  -0.131473  0  4.023954  0
C  C73  1  0.47559387  0.31610169  0.03338547  1  0.022484  0  -0.079634  -0.146117  0  3.932617  0
C  C74  1  0.48909172  0.35020466  0.09944237  1  0.010659  0  -0.005957  0.078064  0  4.041046  0
C  C75  1  0.49227711  0.41775970  0.13452597  1  -0.056158  0  -0.090592  -0.131487  0  4.02374  0
C  C76  1  0.49999305  0.41628606  0.33257342  1  0.032261  0  -0.009172  -0.021813  0  3.999771  0
C  C77  1  0.50000304  0.35007909  0.20015334  1  -0.127473  0  0.006196  0.004486  0  3.904315  0
C  C78  1  0.50001164  0.25037892  0.00075637  1  0.084317  0  -0.009293  -0.0222  0  4.000128  0
C  C79  1  0.49999912  0.31659280  0.13317770  1  0.069352  0  0.00623  0.004669  0  3.904347  0
O  O80  1  0.73470550  0.56938530  0.56138171  1  -1.254855  0  -0.23814  -0.596768  0  2.354336  0
O  O81  1  0.73470698  0.49199534  0.43061760  1  -1.256597  0  -0.238248  -0.596887  0  2.354319  0
O  O82  1  0.73468378  0.43862014  0.50800665  1  -1.25266  0  -0.238299  -0.597066  0  2.354586  0
O  O83  1  0.26531463  0.56938266  0.50800669  1  -1.259749  0  -0.238254  -0.597002  0  2.354616  0
O  O84  1  0.26531545  0.49199045  0.56137822  1  -1.252921  0  -0.238273  -0.597058  0  2.354723  0
O  O85  1  0.26528824  0.43861933  0.43061535  1  -1.255132  0  -0.238161  -0.596734  0  2.354417  0
O  O86  1  0.73470518  0.17467068  0.90272082  1  -1.260348  0  -0.238168  -0.596893  0  2.354442  0
O  O87  1  0.73472584  0.22804629  0.82533218  1  -1.253022  0  -0.238095  -0.596594  0  2.354115  0
O  O88  1  0.73468886  0.09728295  0.77195612  1  -1.255098  0  -0.238265  -0.596984  0  2.354566  0
O  O89  1  0.26533015  0.22804176  0.90271865  1  -1.254711  0  -0.238282  -0.597063  0  2.354637  0
O  O90  1  0.26529360  0.09728077  0.82532823  1  -1.257193  0  -0.238213  -0.596923  0  2.354567  0
O  O91  1  0.26529277  0.17467075  0.77195730  1  -1.252277  0  -0.238207  -0.596853  0  2.354298  0
