# generated using pymatgen
data_NiH24C36(NO2)2
_symmetry_space_group_name_H-M   'P 1'
_cell_length_a   16.11314679
_cell_length_b   19.18777930
_cell_length_c   19.18775858
_cell_angle_alpha   79.84737072
_cell_angle_beta   65.15893128
_cell_angle_gamma   65.15879357
_symmetry_Int_Tables_number   1
_chemical_formula_structural   NiH24C36(NO2)2
_chemical_formula_sum   'Ni4 H96 C144 N8 O16'
_cell_volume   4885.39501725
_cell_formula_units_Z   4
loop_
 _symmetry_equiv_pos_site_id
 _symmetry_equiv_pos_as_xyz
  1  'x, y, z'
loop_
 _atom_site_type_symbol
 _atom_site_label
 _atom_site_symmetry_multiplicity
 _atom_site_fract_x
 _atom_site_fract_y
 _atom_site_fract_z
 _atom_site_occupancy
 _atom_site_pbe_bader_charge
 _atom_site_pbe_bader_spin_density
 _atom_site_pbe_cm5_charge
 _atom_site_pbe_ddec_charge
 _atom_site_pbe_ddec_spin_density
 _atom_site_pbe_ddec_sum_bond_order
 _atom_site_pbe_magmom
Ni  Ni0  1  0.64471930  0.99998866  0.00018608  1  1.127407  -1.530881  0.647724  0.687305  -1.817303  2.591645  -1.513
Ni  Ni1  1  0.89495927  0.49991651  0.49998450  1  1.128872  1.530702  0.647416  0.686474  1.816497  2.597185  1.513
Ni  Ni2  1  0.14471613  0.00019176  0.99999047  1  1.127393  1.53089  0.647705  0.687399  1.817317  2.591498  1.513
Ni  Ni3  1  0.39495896  0.49998795  0.49991306  1  1.128971  -1.530707  0.647381  0.686459  -1.816512  2.597064  -1.513
H  H4  1  0.94202395  0.38869184  0.29021862  1  0.112383  0.000548  0.105625  0.109099  0.000396  1.004454  0.0
H  H5  1  0.62115153  0.61112971  0.70940654  1  0.097688  0.000565  0.105633  0.109434  0.000398  1.002571  0.0
H  H6  1  0.58062198  0.79009444  0.11135152  1  0.094734  -0.000549  0.106132  0.110295  -0.000395  1.002782  0.0
H  H7  1  0.48191083  0.20968441  0.88898876  1  0.091286  -0.000569  0.106394  0.110666  -0.000398  1.003187  0.0
H  H8  1  0.12114298  0.70941059  0.61113332  1  0.097511  -0.000565  0.105627  0.109431  -0.000398  1.002507  0.0
H  H9  1  0.44202119  0.29022310  0.38869348  1  0.112399  -0.000548  0.105624  0.10908  -0.000396  1.004506  0.0
H  H10  1  0.98191084  0.88899386  0.20968740  1  0.091494  0.00057  0.106441  0.110732  0.000398  1.003138  0.0
H  H11  1  0.08061458  0.11136439  0.79009913  1  0.094778  0.000549  0.106078  0.110261  0.000395  1.002675  0.0
H  H12  1  0.89601187  0.32086907  0.22111760  1  0.058435  5.7e-05  0.102182  0.103661  2.6e-05  1.000739  0.0
H  H13  1  0.43815359  0.67887873  0.77877096  1  0.029616  5.9e-05  0.102545  0.104087  2.6e-05  1.000353  0.0
H  H14  1  0.46687337  0.72091702  0.17903502  1  0.043243  -5.8e-05  0.102146  0.103159  -2.6e-05  1.000374  0.0
H  H15  1  0.36667919  0.27881849  0.82121758  1  0.025769  -5.9e-05  0.102376  0.103715  -2.6e-05  1.001045  0.0
H  H16  1  0.93814522  0.77876925  0.67888063  1  0.029668  -5.9e-05  0.102528  0.104065  -2.6e-05  1.00035  0.0
H  H17  1  0.39600870  0.22111866  0.32087306  1  0.058576  -5.7e-05  0.102184  0.103657  -2.6e-05  1.000744  0.0
H  H18  1  0.86667854  0.82122195  0.27882137  1  0.025716  5.9e-05  0.102375  0.103686  2.6e-05  1.001057  0.0
H  H19  1  0.96685926  0.17904481  0.72092479  1  0.043009  5.7e-05  0.102124  0.103137  2.6e-05  1.000426  0.0
H  H20  1  0.69665851  0.27012295  0.43811951  1  0.031051  7.6e-05  0.102029  0.103709  4.3e-05  1.003631  0.0
H  H21  1  0.40456371  0.73024526  0.56198467  1  0.046237  7.6e-05  0.102043  0.103875  4.3e-05  1.003704  0.0
H  H22  1  0.21664537  0.93784627  0.23034387  1  0.035956  -7.5e-05  0.101835  0.103831  -4.2e-05  1.003002  0.0
H  H23  1  0.38516714  0.06178475  0.76977950  1  0.064708  -7.4e-05  0.102468  0.104753  -4.3e-05  1.002777  0.0
H  H24  1  0.90456559  0.56197992  0.73024512  1  0.046161  -7.6e-05  0.102028  0.103827  -4.3e-05  1.003698  0.0
H  H25  1  0.19666104  0.43812242  0.27012109  1  0.031028  -7.6e-05  0.101988  0.103645  -4.3e-05  1.003628  0.0
H  H26  1  0.88517570  0.76977683  0.06178563  1  0.06472  7.4e-05  0.102469  0.104722  4.3e-05  1.002788  0.0
H  H27  1  0.71663965  0.23035386  0.93785220  1  0.035837  7.5e-05  0.101823  0.10379  4.2e-05  1.003084  0.0
H  H28  1  0.74403617  0.33749699  0.50623339  1  0.058514  0.000548  0.101295  0.103184  0.000401  1.027107  0.0
H  H29  1  0.58746987  0.66288281  0.49363146  1  0.125135  0.000525  0.101539  0.103326  0.0004  1.028532  0.0
H  H30  1  0.33125293  0.00606033  0.16305039  1  0.080997  -0.000539  0.101915  0.104206  -0.000399  1.026935  0.0
H  H31  1  0.50068052  0.99371039  0.83713864  1  0.07662  -0.000539  0.101448  0.104083  -0.0004  1.027366  0.0
H  H32  1  0.08747452  0.49363201  0.66288089  1  0.125255  -0.000525  0.101535  0.103271  -0.0004  1.028572  0.0
H  H33  1  0.24403971  0.50623434  0.33749560  1  0.058648  -0.000548  0.101302  0.103189  -0.000401  1.0271  0.0
H  H34  1  0.00068008  0.83713966  0.99371393  1  0.076646  0.000539  0.101468  0.104114  0.0004  1.027355  0.0
H  H35  1  0.83124868  0.16306000  0.00606553  1  0.080845  0.000539  0.101911  0.104179  0.000399  1.026858  0.0
H  H36  1  0.92224823  0.19567184  0.20425744  1  0.083339  -8e-06  0.094117  0.085437  -1.3e-05  1.054964  0.0
H  H37  1  0.32205132  0.80424704  0.79594742  1  0.058446  -9e-06  0.094776  0.086175  -1.3e-05  1.053844  0.0
H  H38  1  0.36770133  0.70403399  0.30441928  1  0.062752  8e-06  0.094136  0.086251  1.3e-05  1.054763  0.0
H  H39  1  0.37649191  0.29558307  0.69576547  1  0.055795  8e-06  0.094481  0.086392  1.3e-05  1.054423  0.0
H  H40  1  0.82204687  0.79594290  0.80424891  1  0.058787  9e-06  0.094811  0.086098  1.3e-05  1.053803  0.0
H  H41  1  0.42225476  0.20425792  0.19566891  1  0.083308  8e-06  0.094118  0.085441  1.3e-05  1.054929  0.0
H  H42  1  0.87649647  0.69576434  0.29558349  1  0.055696  -8e-06  0.094501  0.086457  -1.3e-05  1.054365  0.0
H  H43  1  0.86769705  0.30442647  0.70403751  1  0.062866  -8e-06  0.094134  0.086247  -1.3e-05  1.054755  0.0
H  H44  1  0.88713411  0.12432097  0.13148862  1  0.149876  0.000196  0.10285  0.119481  0.000134  1.046026  0.0
H  H45  1  0.14272417  0.87561264  0.86871146  1  0.116297  0.000203  0.102895  0.119681  0.000138  1.046183  0.0
H  H46  1  0.26118376  0.63122317  0.37552218  1  0.1454  -0.000202  0.102637  0.119212  -0.000139  1.047286  0.0
H  H47  1  0.26851988  0.36848730  0.62449269  1  0.123654  -0.000205  0.102513  0.118801  -0.00014  1.047545  0.0
H  H48  1  0.64271818  0.86871019  0.87561239  1  0.116359  -0.000203  0.102884  0.1197  -0.000138  1.046159  0.0
H  H49  1  0.38714217  0.13148813  0.12431761  1  0.149791  -0.000196  0.102877  0.119607  -0.000134  1.045872  0.0
H  H50  1  0.76852908  0.62449055  0.36848569  1  0.123433  0.000205  0.102522  0.118872  0.00014  1.047441  0.0
H  H51  1  0.76117793  0.37552433  0.63122505  1  0.145446  0.000202  0.102658  0.119254  0.000139  1.047257  0.0
H  H52  1  0.57648634  0.22209864  0.27714511  1  0.078123  -2.1e-05  0.095381  0.091556  4e-06  1.048027  0.0
H  H53  1  0.07569132  0.77785282  0.72295486  1  0.059245  -2e-05  0.095448  0.092103  4e-06  1.047556  0.0
H  H54  1  0.04860244  0.77685018  0.27753016  1  0.066334  2.1e-05  0.095449  0.091284  -4e-06  1.047133  0.0
H  H55  1  0.10323964  0.22306824  0.72237021  1  0.074827  2.1e-05  0.094714  0.090057  -4e-06  1.047957  0.0
H  H56  1  0.57569050  0.72294731  0.77785519  1  0.059181  2e-05  0.095431  0.092154  -4e-06  1.047485  0.0
H  H57  1  0.07649344  0.27714254  0.22209418  1  0.078201  2.1e-05  0.095427  0.091568  -4e-06  1.047996  0.0
H  H58  1  0.60324194  0.72237023  0.22306838  1  0.074902  -2.1e-05  0.094736  0.090065  4e-06  1.047909  0.0
H  H59  1  0.54860070  0.27752817  0.77684950  1  0.066246  -2.1e-05  0.095435  0.091217  4e-06  1.047197  0.0
H  H60  1  0.61159142  0.29249228  0.35092507  1  0.120261  -0.000216  0.100822  0.108799  -0.000183  1.024215  0.0
H  H61  1  0.25507208  0.70736291  0.64929496  1  0.097834  -0.000216  0.101217  0.10967  -0.000181  1.023288  0.0
H  H62  1  0.15421715  0.85059838  0.20733878  1  0.086077  0.000219  0.100673  0.109016  0.000183  1.023365  0.0
H  H63  1  0.21222387  0.14921801  0.79271138  1  0.11293  0.000217  0.10058  0.109047  0.000183  1.023723  0.0
H  H64  1  0.75507241  0.64928824  0.70736419  1  0.098532  0.000216  0.101158  0.109711  0.000181  1.02336  0.0
H  H65  1  0.11159460  0.35092125  0.29249224  1  0.120324  0.000217  0.100832  0.108799  0.000183  1.024229  0.0
H  H66  1  0.71222492  0.79270892  0.14922012  1  0.113016  -0.000217  0.100584  0.109087  -0.000183  1.023735  0.0
H  H67  1  0.65421866  0.20734242  0.85060038  1  0.086099  -0.000219  0.100687  0.108989  -0.000183  1.023447  0.0
H  H68  1  0.82966482  0.01704757  0.15269804  1  0.11804  -0.000993  0.111353  0.122339  -0.000512  1.006562  0.0
H  H69  1  0.99915126  0.98320307  0.84704142  1  0.12373  -0.000992  0.111127  0.122455  -0.000513  1.007303  0.0
H  H70  1  0.09660617  0.65272698  0.48276227  1  0.085577  0.001023  0.110733  0.12184  0.000516  1.004343  0.0
H  H71  1  0.23244025  0.34720279  0.51719820  1  0.117699  0.001004  0.110821  0.122255  0.000514  1.00647  0.0
H  H72  1  0.49914683  0.84702831  0.98320521  1  0.123936  0.000992  0.111158  0.122577  0.000513  1.007143  0.0
H  H73  1  0.32967066  0.15270027  0.01704402  1  0.118438  0.000993  0.111357  0.122326  0.000512  1.006587  0.0
H  H74  1  0.73244786  0.51719434  0.34720415  1  0.117543  -0.001004  0.110832  0.122249  -0.000514  1.006454  0.0
H  H75  1  0.59660663  0.48275676  0.65272815  1  0.085726  -0.001023  0.110736  0.121828  -0.000516  1.004227  0.0
H  H76  1  0.78899305  0.95199140  0.07756803  1  0.096476  -0.002203  0.116262  0.084365  -0.000866  1.022043  -0.001
H  H77  1  0.81815084  0.04828455  0.92211749  1  0.135203  -0.002202  0.115765  0.083273  -0.000868  1.022678  -0.001
H  H78  1  0.99081345  0.57764794  0.54806524  1  0.091848  0.00221  0.116363  0.083905  0.00087  1.022822  0.001
H  H79  1  0.11676656  0.42224347  0.45199911  1  0.101082  0.002202  0.11588  0.083907  0.000868  1.02293  0.001
H  H80  1  0.31814805  0.92210807  0.04828734  1  0.135259  0.002202  0.115756  0.083194  0.000867  1.022783  0.001
H  H81  1  0.28899345  0.07757289  0.95198788  1  0.096427  0.002202  0.116249  0.084324  0.000866  1.022162  0.001
H  H82  1  0.61676801  0.45199966  0.42224526  1  0.101085  -0.002201  0.11588  0.083889  -0.000868  1.022908  -0.001
H  H83  1  0.49081983  0.54806172  0.57764338  1  0.09194  -0.00221  0.116411  0.083951  -0.00087  1.022837  -0.001
H  H84  1  0.55456325  0.15056605  0.06598806  1  0.097918  -0.002213  0.123517  0.099611  -0.000876  0.991331  -0.002
H  H85  1  0.77091857  0.84955892  0.93432373  1  0.106324  -0.002218  0.123522  0.099293  -0.000878  0.989091  -0.002
H  H86  1  0.95460991  0.56590854  0.34975048  1  0.105671  0.002227  0.124389  0.100512  0.000881  0.989832  0.002
H  H87  1  0.87043650  0.43414157  0.65045102  1  0.107085  0.002221  0.123542  0.09901  0.000878  0.989668  0.002
H  H88  1  0.27091650  0.93432595  0.84956030  1  0.106058  0.002219  0.123513  0.09935  0.000879  0.989031  0.002
H  H89  1  0.05456634  0.06599188  0.15056451  1  0.097904  0.002213  0.123468  0.099592  0.000876  0.991305  0.002
H  H90  1  0.37044234  0.65045476  0.43413969  1  0.107328  -0.002221  0.123547  0.09901  -0.000878  0.989602  -0.002
H  H91  1  0.45460877  0.34975260  0.56590563  1  0.10534  -0.002228  0.12435  0.100453  -0.000881  0.989872  -0.002
H  H92  1  0.58195581  0.22370194  0.14493255  1  0.088824  -0.001141  0.111505  0.120096  -0.000554  0.992237  0.0
H  H93  1  0.95041785  0.77645222  0.85516281  1  0.088861  -0.001146  0.11174  0.120479  -0.000554  0.991093  0.0
H  H94  1  0.05522887  0.64478522  0.27633532  1  0.083989  0.001151  0.111102  0.119502  0.000556  0.992461  0.0
H  H95  1  0.97662052  0.35522568  0.72373586  1  0.090944  0.001139  0.111754  0.120425  0.000555  0.991821  0.0
H  H96  1  0.45041069  0.85516402  0.77645500  1  0.088875  0.001146  0.111786  0.120484  0.000554  0.991125  0.0
H  H97  1  0.08196880  0.14493148  0.22369950  1  0.088888  0.00114  0.111523  0.120132  0.000554  0.992321  0.0
H  H98  1  0.47663060  0.72373653  0.35522280  1  0.091047  -0.001139  0.111795  0.120501  -0.000555  0.991761  0.0
H  H99  1  0.55522456  0.27633581  0.64478398  1  0.083743  -0.001151  0.11111  0.11952  -0.000556  0.992484  0.0
C  C100  1  0.87445050  0.40782073  0.44193056  1  1.526711  -0.004331  0.191112  0.5489  -0.001806  4.19241  -0.006
C  C101  1  0.72419756  0.59218916  0.55780952  1  1.531612  -0.004262  0.192096  0.547758  -0.001803  4.190918  -0.006
C  C102  1  0.53218023  0.94177168  0.09229587  1  1.520357  0.004341  0.192084  0.548749  0.00181  4.190151  0.006
C  C103  1  0.56622214  0.05803867  0.90797722  1  1.533904  0.004293  0.191302  0.54654  0.001807  4.195196  0.006
C  C104  1  0.22419612  0.55780930  0.59218838  1  1.531585  0.004262  0.192102  0.547722  0.001803  4.190747  0.006
C  C105  1  0.37444914  0.44193349  0.40782057  1  1.526515  0.004331  0.191181  0.548978  0.001806  4.19227  0.006
C  C106  1  0.06622195  0.90798125  0.05804038  1  1.533659  -0.004291  0.191353  0.546768  -0.001807  4.195114  -0.006
C  C107  1  0.03217133  0.09230391  0.94177856  1  1.520018  -0.004341  0.19209  0.54877  -0.00181  4.19028  -0.006
C  C108  1  0.84766239  0.36563675  0.40218949  1  -0.008488  0.004085  -0.019204  -0.035316  0.002647  3.987395  0.003
C  C109  1  0.61542991  0.63442824  0.59756098  1  -0.034187  0.004111  -0.019783  -0.032996  0.002655  3.981308  0.003
C  C110  1  0.46315047  0.90204613  0.13454608  1  -0.001965  -0.004086  -0.020113  -0.033188  -0.002649  3.982435  -0.003
C  C111  1  0.49980699  0.09775557  0.86566519  1  -0.019665  -0.004125  -0.019457  -0.031197  -0.002656  3.984109  -0.003
C  C112  1  0.11543036  0.59756140  0.63442465  1  -0.034039  -0.004111  -0.019827  -0.033023  -0.002655  3.981273  -0.003
C  C113  1  0.34765887  0.40219227  0.36563865  1  -0.008524  -0.004085  -0.019149  -0.035207  -0.002647  3.9872  -0.003
C  C114  1  0.99980859  0.86567051  0.09775583  1  -0.020137  0.004125  -0.019518  -0.031392  0.002656  3.984291  0.003
C  C115  1  0.96314093  0.13455448  0.90205242  1  -0.002434  0.004086  -0.020124  -0.033084  0.002649  3.982483  0.003
C  C116  1  0.88982015  0.36110880  0.32184768  1  -0.07369  0.000116  -0.084316  -0.092863  0.000181  4.002024  0.0
C  C117  1  0.57282305  0.63880349  0.67791606  1  -0.028843  9.8e-05  -0.085121  -0.093932  0.000187  3.997435  0.0
C  C118  1  0.50080500  0.82169156  0.13898063  1  -0.08654  -0.000122  -0.085595  -0.09749  -0.000185  4.003908  0.0
C  C119  1  0.46144357  0.17810104  0.86126310  1  -0.039493  -9.7e-05  -0.08615  -0.09806  -0.000186  4.005861  0.0
C  C120  1  0.07281705  0.67791719  0.63880167  1  -0.02884  -9.8e-05  -0.085124  -0.093945  -0.000186  3.99747  0.0
C  C121  1  0.38981698  0.32184916  0.36111214  1  -0.074039  -0.000117  -0.084341  -0.092909  -0.000181  4.001894  0.0
C  C122  1  0.96144317  0.86126872  0.17810181  1  -0.03914  9.7e-05  -0.086124  -0.098038  0.000186  4.00573  0.0
C  C123  1  0.00079739  0.13898842  0.82169777  1  -0.086094  0.000122  -0.085497  -0.097548  0.000185  4.003791  0.0
C  C124  1  0.86398650  0.32329618  0.28375702  1  -0.075599  0.000919  -0.093822  -0.14494  0.000461  3.994789  0.001
C  C125  1  0.47106047  0.67661806  0.71612946  1  -0.041727  0.000915  -0.093351  -0.144853  0.00046  3.9975  0.001
C  C126  1  0.43719276  0.78355291  0.17673128  1  -0.047538  -0.000918  -0.09301  -0.141481  -0.000462  3.994257  -0.001
C  C127  1  0.39750787  0.21618418  0.82345093  1  -0.042598  -0.000916  -0.093376  -0.143448  -0.00046  3.999522  -0.001
C  C128  1  0.97105619  0.71612806  0.67661799  1  -0.041774  -0.000914  -0.093276  -0.14471  -0.00046  3.99761  -0.001
C  C129  1  0.36398307  0.28375861  0.32329778  1  -0.075466  -0.000918  -0.093825  -0.144893  -0.000461  3.994828  -0.001
C  C130  1  0.89750809  0.82345459  0.21618539  1  -0.042872  0.000916  -0.093376  -0.143441  0.00046  3.999417  0.001
C  C131  1  0.93718223  0.17674025  0.78356019  1  -0.047515  0.000918  -0.092902  -0.141251  0.000462  3.994159  0.001
C  C132  1  0.79442051  0.28966705  0.32492534  1  -0.02475  -0.001593  -0.004292  0.076762  -0.000935  4.001153  -0.001
C  C133  1  0.40890220  0.71046898  0.67509810  1  -0.047007  -0.001588  -0.003034  0.077952  -0.000931  4.000472  -0.001
C  C134  1  0.33397691  0.82466706  0.21047311  1  -0.039436  0.00159  -0.002928  0.077963  0.000932  3.999041  0.001
C  C135  1  0.36927527  0.17503048  0.78965812  1  -0.026623  0.001591  -0.002835  0.079034  0.000933  4.000699  0.001
C  C136  1  0.90889963  0.67509464  0.71046904  1  -0.046839  0.001588  -0.003073  0.077774  0.000931  4.00067  0.001
C  C137  1  0.29442018  0.32492654  0.28966837  1  -0.024715  0.001593  -0.004289  0.076654  0.000935  4.001284  0.001
C  C138  1  0.86927201  0.78966190  0.17503326  1  -0.026733  -0.001592  -0.002843  0.079051  -0.000933  4.000846  -0.001
C  C139  1  0.83396844  0.21048075  0.82467399  1  -0.039381  -0.001589  -0.003015  0.077818  -0.000932  3.999076  -0.001
C  C140  1  0.75076208  0.29587148  0.40550337  1  -0.047046  0.000903  -0.090183  -0.13645  0.000451  3.975466  0.001
C  C141  1  0.45191652  0.70437487  0.59449973  1  0.025094  0.000898  -0.089506  -0.135169  0.000449  3.975736  0.001
C  C142  1  0.29651322  0.90524718  0.20444381  1  -0.01256  -0.000899  -0.089208  -0.135427  -0.000449  3.97529  -0.001
C  C143  1  0.40642882  0.09444293  0.79569407  1  -0.065874  -0.000905  -0.089076  -0.136158  -0.00045  3.975754  -0.001
C  C144  1  0.95191553  0.59449691  0.70437223  1  0.025116  -0.000898  -0.089465  -0.135092  -0.000449  3.975791  -0.001
C  C145  1  0.25076252  0.40550310  0.29587153  1  -0.047036  -0.000903  -0.090209  -0.136419  -0.000451  3.97554  -0.001
C  C146  1  0.90642794  0.79569704  0.09444663  1  -0.065912  0.000905  -0.0891  -0.136155  0.00045  3.975934  0.001
C  C147  1  0.79650460  0.20445484  0.90525454  1  -0.01278  0.000899  -0.089157  -0.135383  0.000449  3.975369  0.001
C  C148  1  0.77738331  0.33306210  0.44378440  1  0.011177  -7e-05  -0.081639  -0.084998  7.4e-05  3.971168  0.0
C  C149  1  0.55403481  0.66716323  0.55608694  1  -0.101813  -4.9e-05  -0.083333  -0.08832  7.5e-05  3.974914  0.0
C  C150  1  0.36025379  0.94359489  0.16728737  1  -0.004193  6.4e-05  -0.083262  -0.088931  -7.3e-05  3.972977  0.0
C  C151  1  0.47132504  0.05617069  0.83290528  1  -0.020925  6.4e-05  -0.083541  -0.089547  -7.5e-05  3.974271  0.0
C  C152  1  0.05403396  0.55608620  0.66716157  1  -0.101947  4.9e-05  -0.083279  -0.088165  -7.4e-05  3.974767  0.0
C  C153  1  0.27738547  0.44378474  0.33306057  1  0.011176  7e-05  -0.081577  -0.084982  -7.4e-05  3.971246  0.0
C  C154  1  0.97132437  0.83290576  0.05617534  1  -0.020777  -6.4e-05  -0.083621  -0.08958  7.5e-05  3.974363  0.0
C  C155  1  0.86024461  0.16729576  0.94360226  1  -0.003444  -6.5e-05  -0.083342  -0.088967  7.4e-05  3.973145  0.0
C  C156  1  0.77020659  0.24797136  0.28342909  1  -0.009634  0.001335  -0.006722  0.067293  0.00078  4.005742  0.001
C  C157  1  0.30146573  0.75212573  0.71670926  1  -0.007908  0.001326  -0.008518  0.065267  0.000775  4.006014  0.001
C  C158  1  0.26805880  0.78315111  0.25204522  1  -0.032782  -0.001341  -0.008139  0.066987  -0.000783  4.006552  -0.001
C  C159  1  0.30345765  0.21656894  0.74804752  1  -0.045376  -0.001336  -0.008246  0.066503  -0.00078  4.003804  -0.001
C  C160  1  0.80146142  0.71670431  0.75212502  1  -0.008941  -0.001325  -0.008566  0.065157  -0.000774  4.005765  -0.001
C  C161  1  0.27021016  0.28342953  0.24797005  1  -0.009502  -0.001335  -0.006744  0.06738  -0.00078  4.005755  -0.001
C  C162  1  0.80345929  0.74804946  0.21657104  1  -0.044991  0.001336  -0.008247  0.066509  0.00078  4.003936  0.001
C  C163  1  0.76805215  0.25205197  0.78315616  1  -0.032574  0.001341  -0.008216  0.066956  0.000783  4.006417  0.001
C  C164  1  0.84640910  0.20063998  0.22102863  1  -0.062772  -0.000622  -0.093655  -0.126228  -0.000357  3.991409  0.0
C  C165  1  0.26793222  0.79938390  0.77913945  1  -0.111311  -0.000613  -0.093829  -0.126893  -0.000354  3.992428  0.0
C  C166  1  0.29688894  0.72078108  0.29936904  1  -0.068981  0.000621  -0.093302  -0.128073  0.000357  3.993359  0.0
C  C167  1  0.31734184  0.27892433  0.70072760  1  -0.070714  0.000613  -0.094005  -0.127781  0.000355  3.991334  0.0
C  C168  1  0.76792842  0.77913469  0.79938403  1  -0.111125  0.000613  -0.093823  -0.126598  0.000354  3.992128  0.0
C  C169  1  0.34641367  0.22102987  0.20063991  1  -0.062547  0.000622  -0.093688  -0.126301  0.000357  3.991286  0.0
C  C170  1  0.81734557  0.70072695  0.27892458  1  -0.071243  -0.000613  -0.094033  -0.127883  -0.000355  3.991336  0.0
C  C171  1  0.79688477  0.29937533  0.72078514  1  -0.069261  -0.000621  -0.093278  -0.128054  -0.000357  3.993239  0.0
C  C172  1  0.82723397  0.15970815  0.18066512  1  -0.033795  0.001517  -0.09069  -0.126995  0.000912  3.962336  0.001
C  C173  1  0.16741742  0.84028690  0.81949003  1  0.025725  0.001506  -0.089454  -0.125054  0.00091  3.961148  0.001
C  C174  1  0.23675306  0.68040376  0.34013934  1  -0.00802  -0.00153  -0.090372  -0.126745  -0.000919  3.961813  -0.001
C  C175  1  0.25771558  0.31936414  0.65989202  1  0.032155  -0.00151  -0.090289  -0.126675  -0.000914  3.963145  -0.001
C  C176  1  0.66741451  0.81948644  0.84028759  1  0.025595  -0.001506  -0.089394  -0.125079  -0.000909  3.960988  -0.001
C  C177  1  0.32724106  0.18066652  0.15970507  1  -0.033867  -0.001517  -0.09072  -0.127144  -0.000912  3.962306  -0.001
C  C178  1  0.75772335  0.65988898  0.31936321  1  0.03264  0.00151  -0.090261  -0.126645  0.000914  3.962957  0.001
C  C179  1  0.73675158  0.34013970  0.68040584  1  -0.007874  0.00153  -0.090327  -0.126762  0.000918  3.961867  0.001
C  C180  1  0.72936597  0.16730804  0.20062059  1  -0.097035  -0.000782  -0.011789  0.055129  -0.000446  4.012367  -0.001
C  C181  1  0.09714535  0.83274927  0.79945012  1  -0.105211  -0.00078  -0.014434  0.050911  -0.000442  4.011315  -0.001
C  C182  1  0.14652383  0.70038887  0.33247800  1  -0.033686  0.000802  -0.01297  0.054409  0.000445  4.011247  0.001
C  C183  1  0.17974959  0.29947230  0.66751172  1  -0.060432  0.00079  -0.013956  0.052456  0.000443  4.012806  0.001
C  C184  1  0.59714428  0.79944215  0.83275075  1  -0.105139  0.00078  -0.014548  0.05087  0.000442  4.011105  0.001
C  C185  1  0.22937367  0.20061976  0.16730475  1  -0.097017  0.000782  -0.011754  0.055189  0.000446  4.012446  0.001
C  C186  1  0.67975839  0.66750606  0.29947064  1  -0.060074  -0.00079  -0.014001  0.052306  -0.000443  4.012816  -0.001
C  C187  1  0.64652575  0.33247407  0.70038660  1  -0.033835  -0.000801  -0.013005  0.054363  -0.000445  4.011208  -0.001
C  C188  1  0.65259608  0.21563060  0.26197009  1  -0.048874  0.001354  -0.093475  -0.128097  0.000795  3.993002  0.001
C  C189  1  0.13011060  0.78440014  0.73810745  1  -0.03635  0.001349  -0.092004  -0.125547  0.000792  3.992059  0.001
C  C190  1  0.11815417  0.76169063  0.28412728  1  -0.046738  -0.001364  -0.092171  -0.12488  -0.000799  3.990687  -0.001
C  C191  1  0.16425690  0.23816407  0.71582725  1  -0.058851  -0.00136  -0.091411  -0.123567  -0.000796  3.991635  -0.001
C  C192  1  0.63011051  0.73810056  0.78439840  1  -0.036545  -0.001348  -0.092007  -0.125674  -0.000792  3.992007  -0.001
C  C193  1  0.15260005  0.26196922  0.21562934  1  -0.048464  -0.001354  -0.093524  -0.128107  -0.000795  3.992996  -0.001
C  C194  1  0.66426219  0.71582288  0.23816494  1  -0.059478  0.00136  -0.091409  -0.123469  0.000796  3.991477  0.001
C  C195  1  0.61815055  0.28412608  0.76169042  1  -0.046783  0.001364  -0.09213  -0.124731  0.000799  3.990617  0.001
C  C196  1  0.67250930  0.25468976  0.30380753  1  -0.097265  -0.000775  -0.088745  -0.123872  -0.000441  3.965086  -0.001
C  C197  1  0.23096172  0.74533292  0.69629331  1  -0.034304  -0.000766  -0.089993  -0.12611  -0.000436  3.964766  -0.001
C  C198  1  0.17717979  0.80350561  0.24518075  1  -0.084672  0.00077  -0.090306  -0.127247  0.000441  3.965994  0.001
C  C199  1  0.22605021  0.19627098  0.75484892  1  -0.077347  0.000773  -0.089431  -0.126379  0.00044  3.965592  0.001
C  C200  1  0.73095954  0.69628969  0.74533149  1  -0.034281  0.000765  -0.089951  -0.126222  0.000436  3.964839  0.001
C  C201  1  0.17251395  0.30380592  0.25468870  1  -0.098112  0.000775  -0.088768  -0.123883  0.000441  3.965239  0.001
C  C202  1  0.72605151  0.75484925  0.19627443  1  -0.076977  -0.000773  -0.089442  -0.126439  -0.00044  3.965769  -0.001
C  C203  1  0.67717547  0.24518353  0.80350671  1  -0.084687  -0.000769  -0.090331  -0.127259  -0.000441  3.966177  -0.001
C  C204  1  0.70808879  0.12623374  0.15633395  1  -0.017604  0.009167  0.013195  0.111457  0.00538  3.991478  0.006
C  C205  1  0.99045756  0.87392612  0.84366053  1  0.01222  0.009156  0.013829  0.112817  0.005367  3.991206  0.006
C  C206  1  0.08402706  0.65625670  0.37367048  1  -0.057585  -0.009217  0.013762  0.112231  -0.005392  3.992292  -0.006
C  C207  1  0.11429627  0.34367766  0.62633466  1  -0.065275  -0.009197  0.014905  0.113968  -0.005376  3.989893  -0.006
C  C208  1  0.49045323  0.84365486  0.87392948  1  0.012161  -0.009152  0.013719  0.112761  -0.005365  3.991144  -0.006
C  C209  1  0.20809763  0.15633438  0.12623093  1  -0.016835  -0.009167  0.013277  0.111573  -0.00538  3.991425  -0.006
C  C210  1  0.61430609  0.62633136  0.34367704  1  -0.065186  0.009197  0.014836  0.113914  0.005376  3.99024  0.006
C  C211  1  0.58402880  0.37366626  0.65625389  1  -0.057287  0.009215  0.01369  0.11221  0.00539  3.992286  0.006
C  C212  1  0.76720877  0.04890470  0.13553380  1  -0.002189  -0.006052  -0.076366  -0.16067  -0.00361  3.920596  -0.005
C  C213  1  0.95141011  0.95131833  0.86431657  1  -0.019647  -0.005991  -0.076698  -0.161953  -0.003608  3.920224  -0.005
C  C214  1  0.06589071  0.63556783  0.45100399  1  0.051333  0.006024  -0.076894  -0.162708  0.003621  3.918144  0.005
C  C215  1  0.15277473  0.36435043  0.54899095  1  0.020829  0.006049  -0.07724  -0.162332  0.003619  3.918986  0.005
C  C216  1  0.45140796  0.86430657  0.95132015  1  -0.019943  0.005991  -0.076659  -0.162162  0.003608  3.920068  0.005
C  C217  1  0.26721330  0.13553624  0.04890265  1  -0.003142  0.006052  -0.076434  -0.160782  0.00361  3.920757  0.005
C  C218  1  0.65278066  0.54898993  0.36435234  1  0.020927  -0.006048  -0.077132  -0.162248  -0.003618  3.919101  -0.005
C  C219  1  0.56589224  0.45100019  0.63556609  1  0.051344  -0.006024  -0.076889  -0.162636  -0.003621  3.917976  -0.005
C  C220  1  0.74522896  0.01235300  0.09326188  1  0.474762  0.007166  0.04691  0.093757  0.003795  3.944337  0.005
C  C221  1  0.85055619  0.98789037  0.90653516  1  0.378398  0.007079  0.049184  0.097353  0.003779  3.942931  0.005
C  C222  1  0.00737898  0.59330871  0.48770001  1  0.451363  -0.007115  0.049921  0.099081  -0.003805  3.941307  -0.005
C  C223  1  0.08859516  0.40657935  0.51235796  1  0.432052  -0.007113  0.049542  0.0968  -0.003786  3.942289  -0.005
C  C224  1  0.35055109  0.90652900  0.98789472  1  0.378488  -0.007079  0.049187  0.097604  -0.003779  3.942809  -0.005
C  C225  1  0.24523340  0.09326409  0.01235107  1  0.474958  -0.007167  0.046936  0.093844  -0.003796  3.94437  -0.005
C  C226  1  0.58859917  0.51235914  0.40658004  1  0.431966  0.007113  0.049556  0.096797  0.003785  3.942046  0.005
C  C227  1  0.50738021  0.48769783  0.59330714  1  0.45129  0.007113  0.049906  0.098982  0.003804  3.941533  0.005
C  C228  1  0.61315775  0.12323554  0.08813161  1  0.463566  0.00569  0.048722  0.094348  0.002602  3.947465  0.004
C  C229  1  0.82431117  0.87691510  0.91201367  1  0.441296  0.00564  0.048256  0.094816  0.00259  3.94258  0.004
C  C230  1  0.98602212  0.58806169  0.37691439  1  0.451758  -0.0057  0.047684  0.094564  -0.002616  3.944028  -0.004
C  C231  1  0.95119762  0.41195206  0.62320130  1  0.498863  -0.005772  0.048283  0.096113  -0.002608  3.942754  -0.004
C  C232  1  0.32430575  0.91201094  0.87691957  1  0.44147  -0.005637  0.048256  0.094725  -0.002589  3.942696  -0.004
C  C233  1  0.11316323  0.08813273  0.12323567  1  0.463386  -0.005691  0.048805  0.094475  -0.002602  3.947443  -0.004
C  C234  1  0.45120464  0.62320459  0.41195007  1  0.498644  0.005771  0.048284  0.096197  0.002608  3.942381  0.004
C  C235  1  0.48602002  0.37691531  0.58805981  1  0.451999  0.005699  0.047711  0.094678  0.002616  3.943947  0.004
C  C236  1  0.62896384  0.16319692  0.13184429  1  -0.056446  -0.006541  -0.085224  -0.185102  -0.003908  3.957193  -0.005
C  C237  1  0.92379942  0.83697156  0.86819196  1  -0.011272  -0.006527  -0.084996  -0.186146  -0.003904  3.955502  -0.005
C  C238  1  0.04174683  0.63176680  0.33683760  1  -0.018527  0.006547  -0.083625  -0.183374  0.00391  3.955902  0.005
C  C239  1  0.01063484  0.36824798  0.66322723  1  -0.0557  0.006602  -0.085311  -0.186675  0.003906  3.957136  0.005
C  C240  1  0.42379516  0.86818907  0.83697201  1  -0.011185  0.006528  -0.084885  -0.185886  0.003904  3.955324  0.005
C  C241  1  0.12897146  0.13184553  0.16319624  1  -0.056585  0.006541  -0.085307  -0.18527  0.003908  3.957283  0.005
C  C242  1  0.51064471  0.66322745  0.36824689  1  -0.055879  -0.006602  -0.085291  -0.186798  -0.003906  3.957038  -0.005
C  C243  1  0.54174600  0.33683680  0.63176425  1  -0.018403  -0.006546  -0.083601  -0.183443  -0.00391  3.955965  -0.005
N  N244  1  0.67007180  0.04879086  0.06907699  1  -1.208217  -0.07182  -0.337582  -0.233538  -0.04487  3.645102  -0.064
N  N245  1  0.78771426  0.95137698  0.93097630  1  -1.202647  -0.071935  -0.337472  -0.23379  -0.044921  3.645352  -0.064
N  N246  1  0.96869328  0.56902009  0.45132412  1  -1.210818  0.072006  -0.339139  -0.237265  0.045029  3.648985  0.064
N  N247  1  0.98921268  0.43089482  0.54874806  1  -1.201544  0.072046  -0.337415  -0.234112  0.045008  3.64502  0.064
N  N248  1  0.28771085  0.93097036  0.95138016  1  -1.202781  0.071938  -0.337496  -0.233996  0.044924  3.645577  0.064
N  N249  1  0.17007454  0.06907911  0.04879034  1  -1.208271  0.071813  -0.337595  -0.233593  0.044867  3.64511  0.064
N  N250  1  0.48921555  0.54875052  0.43089220  1  -1.201485  -0.072043  -0.337486  -0.234106  -0.045005  3.644619  -0.064
N  N251  1  0.46869498  0.45132394  0.56901794  1  -1.210886  -0.07201  -0.339107  -0.237247  -0.045031  3.649084  -0.064
O  O252  1  0.82945577  0.41859475  0.51441075  1  -1.134505  0.07996  -0.3102  -0.521215  0.047556  2.220278  0.071
O  O253  1  0.76246304  0.58132575  0.48535455  1  -1.134491  0.08018  -0.310255  -0.52089  0.047669  2.218187  0.072
O  O254  1  0.49793557  0.01425077  0.08157766  1  -1.132571  -0.080022  -0.310278  -0.521481  -0.047633  2.220299  -0.071
O  O255  1  0.59370668  0.98558046  0.91877185  1  -1.128647  -0.080056  -0.309775  -0.52033  -0.047674  2.220629  -0.071
O  O256  1  0.26246265  0.48535375  0.58132711  1  -1.134564  -0.080183  -0.310179  -0.520816  -0.047669  2.218173  -0.072
O  O257  1  0.32945507  0.51441105  0.41858916  1  -1.134501  -0.079951  -0.310264  -0.521272  -0.04755  2.220293  -0.071
O  O258  1  0.09370685  0.91877631  0.98558212  1  -1.128613  0.080057  -0.309787  -0.520434  0.047675  2.220683  0.071
O  O259  1  0.99792471  0.08158666  0.01425827  1  -1.132774  0.080022  -0.31018  -0.521435  0.047632  2.220214  0.071
O  O260  1  0.93999488  0.43631418  0.40255297  1  -1.135274  0.086229  -0.322969  -0.542183  0.05132  2.193278  0.077
O  O261  1  0.77881221  0.56372563  0.59722734  1  -1.146464  0.086175  -0.323526  -0.542342  0.051315  2.194271  0.077
O  O262  1  0.62623215  0.90237947  0.06372148  1  -1.136081  -0.086098  -0.323814  -0.542732  -0.051249  2.191219  -0.077
O  O263  1  0.59226914  0.09742923  0.93656595  1  -1.144121  -0.086481  -0.322776  -0.541278  -0.05148  2.194687  -0.078
O  O264  1  0.27881278  0.59722627  0.56372413  1  -1.146405  -0.086172  -0.323586  -0.542373  -0.051314  2.194056  -0.077
O  O265  1  0.43999275  0.40255621  0.43631474  1  -1.13522  -0.086227  -0.323016  -0.542241  -0.05132  2.193166  -0.077
O  O266  1  0.09226779  0.93657060  0.09743093  1  -1.144002  0.086479  -0.322758  -0.541326  0.051479  2.194672  0.078
O  O267  1  0.12622357  0.06372840  0.90238367  1  -1.135661  0.086087  -0.323874  -0.542807  0.051245  2.191418  0.077
