# generated using pymatgen
data_AlH5C10NO8
_symmetry_space_group_name_H-M   'P 1'
_cell_length_a   6.80737566
_cell_length_b   11.15711757
_cell_length_c   11.20612294
_cell_angle_alpha   76.01429790
_cell_angle_beta   71.04535099
_cell_angle_gamma   70.90252373
_symmetry_Int_Tables_number   1
_chemical_formula_structural   AlH5C10NO8
_chemical_formula_sum   'Al2 H10 C20 N2 O16'
_cell_volume   751.87852653
_cell_formula_units_Z   2
loop_
 _symmetry_equiv_pos_site_id
 _symmetry_equiv_pos_as_xyz
  1  'x, y, z'
loop_
 _atom_site_type_symbol
 _atom_site_label
 _atom_site_symmetry_multiplicity
 _atom_site_fract_x
 _atom_site_fract_y
 _atom_site_fract_z
 _atom_site_occupancy
 _atom_site_pbe_bader_charge
 _atom_site_pbe_bader_spin_density
 _atom_site_pbe_cm5_charge
 _atom_site_pbe_ddec_charge
 _atom_site_pbe_ddec_spin_density
 _atom_site_pbe_ddec_sum_bond_order
 _atom_site_pbe_magmom
Al  Al0  1  0.49286281  0.49367250  0.51691242  1  2.506969  0  0.405327  1.639767  0  2.553451  0
Al  Al1  1  0.99436545  0.49180192  0.51765220  1  2.508906  0  0.403759  1.653378  0  2.541029  0
H  H2  1  0.21582693  0.39613217  0.66958267  1  0.626153  0  0.334844  0.412243  0  0.897142  0
H  H3  1  0.73343435  0.63075197  0.39566252  1  0.625908  0  0.34172  0.421409  0  0.877366  0
H  H4  1  0.76846120  0.45099398  0.13294821  1  0.207753  0  0.12138  0.126672  0  1.085867  0
H  H5  1  0.21329855  0.54353439  0.90063377  1  0.184409  0  0.120546  0.125944  0  1.082372  0
H  H6  1  0.27308578  0.24370396  0.34596604  1  0.056654  0  0.097528  0.099684  0  1.066128  0
H  H7  1  0.63231989  0.14046528  0.21846105  1  0.067359  0  0.095912  0.092256  0  0.999975  0
H  H8  1  0.46898830  0.78254973  0.31548519  1  0.058691  0  0.097065  0.097204  0  1.048685  0
H  H9  1  0.72951138  0.90695084  0.20072553  1  0.059315  0  0.097622  0.096858  0  1.001656  0
H  H10  1  0.75543041  0.78108448  0.56615828  1  0.664975  0  0.316325  0.356858  0  0.958754  0
H  H11  1  0.55689038  0.20930451  0.56923713  1  0.663492  0  0.317786  0.356561  0  0.964545  0
C  C12  1  0.87744349  0.26723620  0.50500585  1  1.500479  0  0.270148  0.671584  0  4.022226  0
C  C13  1  0.61364941  0.49763349  0.74183849  1  1.6252  0  0.281994  0.659707  0  4.067819  0
C  C14  1  0.12619098  0.72461429  0.49393481  1  1.446862  0  0.267988  0.668309  0  4.03912  0
C  C15  1  0.37095326  0.49019767  0.29262540  1  1.624834  0  0.274731  0.643255  0  4.089403  0
C  C16  1  0.54980783  0.50216066  0.88237787  1  0.0244  0  0.011341  -0.04824  0  3.900682  0
C  C17  1  0.43224380  0.48956867  0.15160748  1  0.052712  0  0.01164  -0.04755  0  3.908931  0
C  C18  1  0.70183445  0.47969047  0.94999506  1  0.121028  0  0.095655  0.067775  0  3.93421  0
C  C19  1  0.27954805  0.51467572  0.08379546  1  0.115204  0  0.097005  0.068215  0  3.927196  0
C  C20  1  0.64770553  0.47111664  0.08144323  1  0.115559  0  -0.064948  -0.124947  0  3.918663  0
C  C21  1  0.33414157  0.52209980  0.95229568  1  0.130103  0  -0.063189  -0.119424  0  3.912522  0
C  C22  1  0.94351094  0.13473178  0.47841222  1  0.034119  0  -0.029032  -0.238796  0  3.93402  0
C  C23  1  0.16199418  0.07282637  0.41053766  1  0.005191  0  -0.002635  0.07742  0  3.943246  0
C  C24  1  0.78672569  0.06625333  0.52271448  1  0.568462  0  0.102188  0.228506  0  4.030164  0
C  C25  1  0.31645470  0.14199569  0.34243428  1  0.012312  0  -0.099028  -0.13042  0  3.98043  0
C  C26  1  0.51828026  0.08375266  0.27015112  1  -0.085847  0  -0.101438  -0.085695  0  4.057733  0
C  C27  1  0.06474972  0.86555806  0.47119507  1  0.058219  0  -0.034546  -0.243547  0  3.95741  0
C  C28  1  0.84872290  0.93012691  0.52103001  1  0.614262  0  0.101948  0.23017  0  4.032372  0
C  C29  1  0.22113121  0.93826110  0.40454117  1  -0.010253  0  -0.005798  0.074859  0  3.959686  0
C  C30  1  0.42704407  0.88254714  0.32672262  1  0.024196  0  -0.102944  -0.143179  0  4.00363  0
C  C31  1  0.57362871  0.95301397  0.26094988  1  -0.047864  0  -0.101215  -0.089525  0  4.064676  0
N  N32  1  0.92669385  0.47676440  0.88032363  1  0.383239  0  0.060329  0.512622  0  4.233452  0
N  N33  1  0.05217699  0.52296528  0.15189492  1  0.404811  0  0.060744  0.513021  0  4.229341  0
O  O34  1  0.67071628  0.32245330  0.53957661  1  -1.274914  0  -0.245216  -0.626126  0  2.389261  0
O  O35  1  0.81523896  0.47475391  0.68788829  1  -1.259006  0  -0.227997  -0.601079  0  2.409215  0
O  O36  1  0.97355358  0.66751470  0.52501933  1  -1.257459  0  -0.246088  -0.623524  0  2.379364  0
O  O37  1  0.52040635  0.47025289  0.34478147  1  -1.234088  0  -0.217015  -0.551992  0  2.340626  0
O  O38  1  0.32317108  0.66357639  0.48522960  1  -1.274886  0  -0.23155  -0.596026  0  2.405077  0
O  O39  1  0.16975632  0.51496189  0.34732220  1  -1.251166  0  -0.225917  -0.595016  0  2.42428  0
O  O40  1  0.01684626  0.32259897  0.49970367  1  -1.258216  0  -0.225774  -0.571356  0  2.366668  0
O  O41  1  0.46535047  0.51261115  0.69020330  1  -1.235781  0  -0.219813  -0.560978  0  2.336101  0
O  O42  1  0.24409601  0.43159829  0.57914139  1  -1.4329  0  -0.450507  -0.97894  0  2.129557  0
O  O43  1  0.74215001  0.55365707  0.45866333  1  -1.429041  0  -0.451749  -0.991502  0  2.166895  0
O  O44  1  0.95958539  0.58339223  0.83513474  1  -0.429296  0  -0.08843  -0.27313  0  1.950962  0
O  O45  1  0.06567037  0.37224493  0.87651670  1  -0.437191  0  -0.104262  -0.302355  0  1.898283  0
O  O46  1  0.91879159  0.62926425  0.15122240  1  -0.435568  0  -0.104868  -0.301188  0  1.903559  0
O  O47  1  0.01251264  0.41823296  0.19857541  1  -0.434972  0  -0.083575  -0.272699  0  1.994725  0
O  O48  1  0.68848936  0.87375798  0.57590012  1  -1.155893  0  -0.330421  -0.391099  0  2.29705  0
O  O49  1  0.57700462  0.11508162  0.57548610  1  -1.147436  0  -0.327572  -0.385941  0  2.308428  0
