# generated using pymatgen
data_Al3H23C48NO17
_symmetry_space_group_name_H-M   'P 1'
_cell_length_a   12.67610989
_cell_length_b   12.15929363
_cell_length_c   27.85532053
_cell_angle_alpha   89.37798871
_cell_angle_beta   90.48475555
_cell_angle_gamma   59.91694146
_symmetry_Int_Tables_number   1
_chemical_formula_structural   Al3H23C48NO17
_chemical_formula_sum   'Al6 H46 C96 N2 O34'
_cell_volume   3714.38899587
_cell_formula_units_Z   2
loop_
 _symmetry_equiv_pos_site_id
 _symmetry_equiv_pos_as_xyz
  1  'x, y, z'
loop_
 _atom_site_type_symbol
 _atom_site_label
 _atom_site_symmetry_multiplicity
 _atom_site_fract_x
 _atom_site_fract_y
 _atom_site_fract_z
 _atom_site_occupancy
 _atom_site_pbe_bader_charge
 _atom_site_pbe_bader_spin_density
 _atom_site_pbe_cm5_charge
 _atom_site_pbe_ddec_charge
 _atom_site_pbe_ddec_spin_density
 _atom_site_pbe_ddec_sum_bond_order
 _atom_site_pbe_magmom
Al  Al0  1  0.59675571  0.80109712  0.50106243  1  2.494964  0  0.395487  1.692596  0  2.546531  0
Al  Al1  1  0.34642673  0.06734806  0.50148344  1  2.48073  0  0.50356  1.661507  0  2.509743  0
Al  Al2  1  0.58039286  0.07206944  0.50147243  1  2.479152  0  0.5019  1.658015  0  2.518154  0
Al  Al3  1  0.09138094  0.84142191  0.01566287  1  2.480906  0  0.395428  1.686138  0  2.560438  0
Al  Al4  1  0.08795570  0.57983550  0.01639447  1  2.482162  0  0.506132  1.66107  0  2.51001  0
Al  Al5  1  0.33131142  0.56517907  0.01875436  1  2.479793  0  0.506102  1.663117  0  2.501969  0
H  H6  1  0.13516074  0.34683147  0.78121100  1  0.079437  0  0.105463  0.099469  0  0.983319  0
H  H7  1  0.72060415  0.73089531  0.79044956  1  0.068667  0  0.110707  0.120142  0  0.982631  0
H  H8  1  0.50471246  0.59497280  0.78041978  1  0.067826  0  0.102801  0.093067  0  0.990211  0
H  H9  1  0.29707970  0.68312326  0.71800810  1  0.070095  0  0.104282  0.096754  0  0.991675  0
H  H10  1  0.55702480  0.77339931  0.73638283  1  0.044316  0  0.097478  0.085501  0  1.014194  0
H  H11  1  0.41219961  0.95511021  0.80603055  1  0.068513  0  0.102886  0.097045  0  0.995113  0
H  H12  1  0.20493702  0.04208538  0.74376334  1  0.079702  0  0.100689  0.089189  0  0.997246  0
H  H13  1  0.15340125  0.86190488  0.78748304  1  0.085728  0  0.100924  0.09465  0  1.008446  0
H  H14  1  0.15545870  0.50706342  0.71274193  1  0.108353  0  0.100821  0.097734  0  1.015803  0
H  H15  1  0.19264054  0.27661364  0.38348960  1  0.080621  0  0.108545  0.10865  0  1.021914  0
H  H16  1  0.02959027  0.37706544  0.22229173  1  0.029353  0  0.097573  0.09053  0  1.049541  0
H  H17  1  0.46415294  0.36639360  0.13607128  1  0.101341  0  0.109844  0.117832  0  1.003872  0
H  H18  1  0.59272640  0.31831796  0.21017383  1  0.057252  0  0.099774  0.099432  0  1.014792  0
H  H19  1  0.61554123  0.28717146  0.29809882  1  0.066569  0  0.098308  0.100007  0  1.020603  0
H  H20  1  0.54087844  0.25321752  0.37514392  1  0.117537  0  0.10309  0.107441  0  1.032196  0
H  H21  1  0.92964334  0.95587772  0.13911728  1  0.100184  0  0.113355  0.12345  0  0.997439  0
H  H22  1  0.88681898  0.08431145  0.21336634  1  0.043515  0  0.100571  0.099523  0  1.004763  0
H  H23  1  0.33392829  0.13297073  0.73831318  1  0.0745  0  0.102168  0.106265  0  1.016226  0
H  H24  1  0.83594807  0.11615084  0.29788098  1  0.028101  0  0.099894  0.089425  0  1.020727  0
H  H25  1  0.89780462  0.62096777  0.14054413  1  0.106968  0  0.103247  0.110275  0  1.017223  0
H  H26  1  0.82360576  0.56091571  0.21406837  1  0.053528  0  0.091047  0.088776  0  1.02904  0
H  H27  1  0.76846737  0.59407779  0.29964041  1  0.069866  0  0.093223  0.090896  0  1.061258  0
H  H28  1  0.73653901  0.71611349  0.37430977  1  0.105816  0  0.109396  0.117715  0  1.006783  0
H  H29  1  0.48857685  0.58980524  0.14618231  1  0.061071  0  0.104109  0.096363  0  1.034999  0
H  H30  1  0.52407099  0.68907246  0.38708374  1  0.076349  0  0.112347  0.108476  0  1.026545  0
H  H31  1  0.15950799  0.94852111  0.13531395  1  0.117767  0  0.117527  0.129249  0  0.991787  0
H  H32  1  0.07856414  0.08660418  0.20626464  1  0.033621  0  0.100459  0.097079  0  1.003685  0
H  H33  1  0.09015455  0.12161690  0.29347852  1  0.09261  0  0.094257  0.096284  0  1.042552  0
H  H34  1  0.19564452  0.04719961  0.37203241  1  0.076182  0  0.105891  0.111725  0  1.011769  0
H  H35  1  0.51849245  0.32158774  0.73169785  1  0.053278  0  0.104867  0.108447  0  0.984208  0
H  H36  1  0.31917999  0.53356541  0.77490170  1  0.086776  0  0.102956  0.097974  0  1.017897  0
H  H37  1  0.75388175  0.04221666  0.79573761  1  0.077626  0  0.111929  0.104265  0  0.987224  0
H  H38  1  0.94424002  0.93497235  0.72871662  1  0.093961  0  0.113921  0.119018  0  0.969999  0
H  H39  1  0.61656517  0.96069895  0.73589922  1  0.090062  0  0.105383  0.093868  0  0.996756  0
H  H40  1  0.89162705  0.60938162  0.68598477  1  0.61235  0  0.335421  0.366733  0  0.884651  0
H  H41  1  0.08518586  0.64655706  0.81361006  1  0.622083  0  0.335466  0.364832  0  0.883395  0
H  H42  1  0.05918918  0.34965073  0.15888212  1  0.590622  0  0.327993  0.349357  0  0.90627  0
H  H43  1  0.02716751  0.37792991  0.34919495  1  0.429441  0  0.307538  0.298069  0  0.94522  0
H  H44  1  0.94819248  0.39538101  0.29846596  1  0.418319  0  0.302903  0.298077  0  0.95145  0
H  H45  1  0.76488267  0.07011083  0.41617961  1  0.514103  0  0.30968  0.317085  0  0.976351  0
H  H46  1  0.82504719  0.10853194  0.36677574  1  0.426693  0  0.311211  0.301335  0  0.954093  0
H  H47  1  0.62403032  0.51049926  0.18783111  1  0.616817  0  0.330107  0.353403  0  0.901499  0
H  H48  1  0.61958550  0.54621658  0.35177792  1  0.602045  0  0.33306  0.360541  0  0.893791  0
H  H49  1  0.58001446  0.08721381  0.79010614  1  0.59437  0  0.301629  0.327162  0  0.990939  0
H  H50  1  0.69774828  0.59031432  0.52975791  1  0.561282  0  0.290539  0.382189  0  0.924297  0
H  H51  1  0.01190147  0.04956925  0.98561057  1  0.58326  0  0.29214  0.383564  0  0.922047  0
C  C52  1  0.39457451  0.88284933  0.57177624  1  1.648744  0  0.274829  0.716078  0  4.160263  0
C  C53  1  0.36517070  0.26582954  0.61567490  1  0.156946  0  -0.048338  -0.218929  0  3.974367  0
C  C54  1  0.32338013  0.44426870  0.76619061  1  -0.021761  0  -0.070188  -0.071259  0  3.645463  0
C  C55  1  0.31093455  0.35546752  0.80532557  1  0.114458  0  0.00142  0.052638  0  3.796561  0
C  C56  1  0.43356106  0.32708813  0.74305404  1  -0.030736  0  -0.08167  -0.170712  0  3.635214  0
C  C57  1  0.34262854  0.31169998  0.70827808  1  0.142728  0  0.00524  0.126444  0  3.813245  0
C  C58  1  0.42145610  0.23746661  0.78098206  1  0.592292  0  0.090074  0.282172  0  3.755237  0
C  C59  1  0.32995388  0.22241120  0.74692033  1  -0.054257  0  -0.07794  -0.163833  0  3.618495  0
C  C60  1  0.29980038  0.37719591  0.85523563  1  -0.044718  0  -0.019941  -0.009874  0  4.065336  0
C  C61  1  0.35542926  0.28807136  0.65851912  1  -0.450467  0  -0.014982  -0.012146  0  4.059386  0
C  C62  1  0.89446374  0.89002713  0.74268487  1  -0.028673  0  -0.070129  -0.128296  0  3.622289  0
C  C63  1  0.38841452  0.21460692  0.56836366  1  1.635193  0  0.281726  0.724516  0  4.150402  0
C  C64  1  0.78715474  0.94995767  0.77890900  1  -0.045072  0  -0.068757  -0.080855  0  3.627566  0
C  C65  1  0.89676638  0.78601412  0.90066193  1  0.152171  0  -0.033007  -0.177966  0  3.963063  0
C  C66  1  0.77872217  0.86940195  0.61695770  1  -0.066123  0  -0.038421  -0.189472  0  3.964584  0
C  C67  1  0.95278121  0.76136144  0.77126325  1  0.574071  0  0.090451  0.211735  0  3.730511  0
C  C68  1  0.84332532  0.82087060  0.80846395  1  0.140376  0  0.000855  0.06826  0  3.843284  0
C  C69  1  0.87770787  0.71556923  0.73944622  1  0.583155  0  0.083426  0.201118  0  3.746416  0
C  C70  1  0.81990222  0.84634700  0.71025003  1  0.076607  0  -0.00049  0.059708  0  3.84847  0
C  C71  1  0.76970296  0.77617644  0.77607495  1  -0.043335  0  -0.080623  -0.158667  0  3.645333  0
C  C72  1  0.71225817  0.90498291  0.74746870  1  -0.057821  0  -0.069895  -0.079712  0  3.646497  0
C  C73  1  0.86595999  0.80343403  0.85843665  1  -0.469513  0  -0.034157  -0.052641  0  4.107129  0
C  C74  1  0.72740454  0.89273900  0.56901722  1  1.683033  0  0.276346  0.70881  0  4.16722  0
C  C75  1  0.80121799  0.85931463  0.65996623  1  -0.227462  0  -0.032364  -0.048172  0  4.109034  0
C  C76  1  0.32333984  0.74231351  0.73828839  1  -0.018865  0  -0.068112  -0.075391  0  3.625139  0
C  C77  1  0.43816788  0.69427813  0.77188136  1  -0.02378  0  -0.07275  -0.087571  0  3.639866  0
C  C78  1  0.34295618  0.76117145  0.90312446  1  0.167941  0  -0.043616  -0.200193  0  3.970054  0
C  C79  1  0.36598141  0.86744841  0.62030417  1  0.160056  0  -0.047887  -0.209173  0  3.983467  0
C  C80  1  0.24242744  0.84397863  0.77556717  1  -0.030131  0  -0.069695  -0.073673  0  3.619829  0
C  C81  1  0.35720272  0.79536705  0.81052845  1  0.116341  0  0.009207  0.123546  0  3.793983  0
C  C82  1  0.27176815  0.94274393  0.75221576  1  -0.047607  0  -0.072909  -0.087216  0  3.639423  0
C  C83  1  0.35297753  0.84160378  0.71357816  1  0.132689  0  0.005123  0.118167  0  3.806407  0
C  C84  1  0.38660890  0.89502230  0.78589431  1  -0.009404  0  -0.06915  -0.080351  0  3.621496  0
C  C85  1  0.37951739  0.89273505  0.43373854  1  1.554854  0  0.273533  0.640193  0  4.086082  0
C  C86  1  0.46748611  0.79313134  0.74851187  1  -0.023323  0  -0.073079  -0.082111  0  3.64298  0
C  C87  1  0.35392403  0.77527419  0.86042487  1  -0.444038  0  -0.025453  -0.037574  0  4.075061  0
C  C88  1  0.35600313  0.85873467  0.66347828  1  -0.460248  0  -0.027022  -0.037793  0  4.085916  0
C  C89  1  0.25823562  0.28650956  0.36157327  1  -0.047009  0  -0.08335  -0.138893  0  3.948229  0
C  C90  1  0.23852583  0.31358802  0.31221343  1  0.031117  0  -0.005183  -0.006542  0  3.975821  0
C  C91  1  0.21226079  0.34899608  0.21031918  1  0.02572  0  -0.022262  -0.039253  0  4.081883  0
C  C92  1  0.11699754  0.35408781  0.23879921  1  -0.037258  0  -0.115719  -0.272005  0  4.022742  0
C  C93  1  0.12628392  0.34030076  0.28809097  1  0.402069  0  0.098615  0.261652  0  4.077515  0
C  C94  1  0.20181909  0.36398200  0.15948834  1  0.480793  0  0.102259  0.265153  0  3.983349  0
C  C95  1  0.29143311  0.37486836  0.13308009  1  -0.011755  0  -0.024526  -0.159736  0  3.965638  0
C  C96  1  0.39288362  0.21887631  0.43442556  1  1.517894  0  0.277838  0.65345  0  4.065195  0
C  C97  1  0.45639049  0.27209029  0.35738501  1  -0.056099  0  -0.077928  -0.130343  0  3.917625  0
C  C98  1  0.44144309  0.29607437  0.30776465  1  0.036647  0  -0.00233  0.082498  0  4.019753  0
C  C99  1  0.33245611  0.31464263  0.28436848  1  -0.022828  0  0.011575  0.023656  0  3.899751  0
C  C100  1  0.53418952  0.29915630  0.27965819  1  -0.049238  0  -0.093513  -0.133752  0  4.00164  0
C  C101  1  0.52121032  0.31682157  0.23109773  1  0.020711  0  -0.086271  -0.111425  0  4.007035  0
C  C102  1  0.41393909  0.33472181  0.20656917  1  -0.004049  0  -0.015232  0.057632  0  4.07313  0
C  C103  1  0.31956763  0.33285023  0.23368171  1  0.01986  0  0.001521  0.012803  0  3.947202  0
C  C104  1  0.39639546  0.35818231  0.15716258  1  -0.023679  0  -0.079443  -0.126689  0  3.960103  0
C  C105  1  0.36678259  0.26468545  0.38388420  1  -0.01806  0  -0.020633  -0.054031  0  4.033148  0
C  C106  1  0.78450772  0.96630483  0.35673741  1  0.457557  0  0.121796  0.268234  0  4.022752  0
C  C107  1  0.71145399  0.89554981  0.43021825  1  1.493154  0  0.26506  0.642574  0  4.073371  0
C  C108  1  0.81563487  0.94843590  0.30696303  1  -0.00896  0  -0.017623  -0.042019  0  3.98732  0
C  C109  1  0.87634301  0.91236436  0.20748989  1  -0.007498  0  -0.005659  0.080617  0  4.044699  0
C  C110  1  0.86913739  0.01720423  0.23290433  1  -0.001437  0  -0.090793  -0.128993  0  4.014798  0
C  C111  1  0.84089065  0.03384879  0.28049928  1  -0.083046  0  -0.092887  -0.119634  0  4.042763  0
C  C112  1  0.90865773  0.89168362  0.15900186  1  -0.057566  0  -0.077814  -0.144119  0  3.923584  0
C  C113  1  0.91697811  0.78668275  0.13557684  1  -0.028763  0  -0.016586  -0.039673  0  4.026126  0
C  C114  1  0.75964657  0.77923057  0.35485310  1  -0.076553  0  -0.079952  -0.121683  0  3.975805  0
C  C115  1  0.79186395  0.75818600  0.30675500  1  0.021854  0  -0.023925  0.04759  0  4.080436  0
C  C116  1  0.81970886  0.84447295  0.28227561  1  0.044143  0  0.00828  0.025994  0  3.928621  0
C  C117  1  0.79456128  0.65576259  0.28081798  1  -0.055578  0  -0.098173  -0.13351  0  4.038473  0
C  C118  1  0.23186791  0.43026025  0.73258785  1  -0.022172  0  -0.068534  -0.070427  0  3.617219  0
C  C119  1  0.82502395  0.63754784  0.23355746  1  -0.086513  0  -0.10497  -0.152247  0  4.043004  0
C  C120  1  0.85556235  0.72066472  0.20797221  1  0.039749  0  -0.008121  0.080174  0  4.035699  0
C  C121  1  0.85056702  0.82580661  0.23275724  1  -0.015429  0  0.008237  0.008742  0  3.882014  0
C  C122  1  0.88991328  0.70236623  0.15972736  1  -0.037011  0  -0.083615  -0.147627  0  3.933182  0
C  C123  1  0.75431419  0.88091768  0.38024426  1  0.033005  0  -0.03246  -0.178621  0  3.97673  0
C  C124  1  0.45001159  0.75433413  0.36293513  1  -0.07035  0  -0.084428  -0.146442  0  3.95757  0
C  C125  1  0.44564636  0.73158450  0.31399062  1  0.026063  0  -0.014396  -0.02198  0  4.079464  0
C  C126  1  0.43648836  0.69592868  0.21322298  1  0.000687  0  -0.014041  -0.021722  0  4.069401  0
C  C127  1  0.53750558  0.60535916  0.24252246  1  0.492652  0  0.067875  0.139835  0  4.069733  0
C  C128  1  0.53867428  0.61927846  0.29151080  1  0.553332  0  0.066173  0.13672  0  4.069482  0
C  C129  1  0.22043103  0.34052557  0.77005978  1  -0.030578  0  -0.069849  -0.069163  0  3.639585  0
C  C130  1  0.42434492  0.67682296  0.16434993  1  -0.088934  0  -0.087109  -0.149979  0  3.96906  0
C  C131  1  0.32406909  0.76708233  0.13713473  1  0.00088  0  -0.014342  -0.028932  0  4.006701  0
C  C132  1  0.26342670  0.95938565  0.35555029  1  -0.048984  0  -0.080534  -0.141336  0  3.928461  0
C  C133  1  0.25555178  0.94057932  0.30637228  1  0.073244  0  -0.003542  0.085575  0  4.020859  0
C  C134  1  0.34782282  0.82670864  0.28498674  1  0.015648  0  0.00418  0.010338  0  3.931294  0
C  C135  1  0.15839581  0.03428708  0.27671495  1  -0.044017  0  -0.089771  -0.124384  0  3.999712  0
C  C136  1  0.15272315  0.01541984  0.22883263  1  -0.049043  0  -0.087002  -0.124636  0  4.011956  0
C  C137  1  0.24334989  0.90198958  0.20647702  1  -0.011634  0  -0.003083  0.084548  0  4.032273  0
C  C138  1  0.34270073  0.80828453  0.23507711  1  0.031709  0  0.003378  0.01048  0  3.931769  0
C  C139  1  0.23577800  0.87997576  0.15768978  1  -0.013353  0  -0.073302  -0.137279  0  3.910489  0
C  C140  1  0.29217603  0.39613516  0.89832613  1  -0.216679  0  -0.0409  -0.205598  0  3.956111  0
C  C141  1  0.36062250  0.86751030  0.38330770  1  -0.034471  0  -0.018307  -0.037796  0  4.023351  0
C  C142  1  0.95095420  0.76252870  0.94806580  1  1.686204  0  0.276371  0.70439  0  4.174751  0
C  C143  1  0.27244854  0.43833704  0.94712898  1  1.630895  0  0.281345  0.721687  0  4.15358  0
C  C144  1  0.30717181  0.74456567  0.95029198  1  1.670336  0  0.27599  0.714297  0  4.162555  0
C  C145  1  0.96331560  0.76161270  0.08564978  1  1.556185  0  0.272226  0.637594  0  4.08931  0
C  C146  1  0.27306588  0.41907605  0.08233358  1  1.543206  0  0.27962  0.667729  0  4.059077  0
C  C147  1  0.30231473  0.74056786  0.08705754  1  1.578397  0  0.272111  0.636987  0  4.090852  0
N  N148  1  0.03128750  0.34751092  0.31507333  1  -1.186156  0  -0.590766  -0.608055  0  3.307711  0
N  N149  1  0.78100857  0.06561385  0.38037316  1  -1.268275  0  -0.582844  -0.597209  0  3.37841  0
O  O150  1  0.71000473  0.80872929  0.55069545  1  -1.213765  0  -0.211232  -0.559669  0  2.285138  0
O  O151  1  0.31562882  0.19828636  0.45613580  1  -1.264612  0  -0.236862  -0.60319  0  2.309068  0
O  O152  1  0.49562187  0.19458657  0.45308334  1  -1.271088  0  -0.239259  -0.60549  0  2.297851  0
O  O153  1  0.70025265  0.99138077  0.45502546  1  -1.274562  0  -0.251889  -0.626518  0  2.304388  0
O  O154  1  0.50726665  0.98182983  0.50219581  1  -1.610997  0  -0.390911  -1.26806  0  2.299356  0
O  O155  1  0.20189053  0.82791418  0.96316928  1  -1.22006  0  -0.212129  -0.56503  0  2.294234  0
O  O156  1  0.98525874  0.83773852  0.96232370  1  -1.20544  0  -0.20617  -0.550055  0  2.28769  0
O  O157  1  0.96424698  0.66308308  0.97068055  1  -1.248712  0  -0.241019  -0.598474  0  2.230945  0
O  O158  1  0.17025712  0.46481681  0.96527825  1  -1.245127  0  -0.228934  -0.590443  0  2.253195  0
O  O159  1  0.35566799  0.45216507  0.96766801  1  -1.242092  0  -0.228409  -0.586568  0  2.240843  0
O  O160  1  0.38268021  0.64404611  0.97455028  1  -1.257934  0  -0.243294  -0.606013  0  2.231923  0
O  O161  1  0.50063273  0.80471531  0.55769261  1  -1.222261  0  -0.216802  -0.569579  0  2.285435  0
O  O162  1  0.20821431  0.82511935  0.06536676  1  -1.24827  0  -0.211955  -0.56  0  2.367194  0
O  O163  1  0.98918151  0.83961034  0.06638441  1  -1.246434  0  -0.213568  -0.555842  0  2.35589  0
O  O164  1  0.97853223  0.65924794  0.06591149  1  -1.268653  0  -0.246037  -0.609307  0  2.289806  0
O  O165  1  0.17322796  0.44700470  0.06055250  1  -1.26199  0  -0.229865  -0.5845  0  2.323877  0
O  O166  1  0.35603064  0.43620252  0.06333724  1  -1.269417  0  -0.240474  -0.611138  0  2.297744  0
O  O167  1  0.37804271  0.63048829  0.06997977  1  -1.286776  0  -0.25005  -0.611921  0  2.274551  0
O  O168  1  0.17116613  0.66042126  0.01633516  1  -1.608233  0  -0.391094  -1.26994  0  2.296222  0
O  O169  1  0.31133752  0.97795638  0.54722952  1  -1.259594  0  -0.245303  -0.609564  0  2.235261  0
O  O170  1  0.31172772  0.18587354  0.55074609  1  -1.244652  0  -0.230466  -0.591094  0  2.243541  0
O  O171  1  0.48651395  0.19530963  0.54829221  1  -1.244429  0  -0.22936  -0.592852  0  2.25414  0
O  O172  1  0.69812915  0.00204768  0.55013774  1  -1.250726  0  -0.242132  -0.599127  0  2.228904  0
O  O173  1  0.68410292  0.81598266  0.44682272  1  -1.247456  0  -0.216507  -0.556561  0  2.356965  0
O  O174  1  0.47519859  0.81065762  0.45550389  1  -1.252483  0  -0.21654  -0.567707  0  2.366046  0
O  O175  1  0.29987722  0.00032699  0.45154396  1  -1.274604  0  -0.248671  -0.611173  0  2.272029  0
O  O176  1  0.92653583  0.59817469  0.71830878  1  -1.136665  0  -0.368256  -0.472071  0  2.26132  0
O  O177  1  0.07445239  0.69655995  0.78435844  1  -1.148853  0  -0.352961  -0.456393  0  2.291769  0
O  O178  1  0.10490388  0.36980892  0.13590554  1  -1.093227  0  -0.32759  -0.394838  0  2.317254  0
O  O179  1  0.63481395  0.50179920  0.22262503  1  -1.140123  0  -0.349068  -0.416335  0  2.306792  0
O  O180  1  0.63394290  0.52507798  0.31788751  1  -1.126661  0  -0.350888  -0.420538  0  2.298794  0
O  O181  1  0.51203580  0.14516349  0.80997544  1  -1.130201  0  -0.378051  -0.481894  0  2.270615  0
O  O182  1  0.68086950  0.63440462  0.49910994  1  -1.354418  0  -0.583869  -1.004962  0  1.794066  0
O  O183  1  0.01535493  0.00802332  0.01583146  1  -1.370732  0  -0.5808  -0.999487  0  1.795465  0
