# generated using pymatgen
data_CdH14C28(NO2)4
_symmetry_space_group_name_H-M   'P 1'
_cell_length_a   8.22408773
_cell_length_b   18.82761196
_cell_length_c   22.57695786
_cell_angle_alpha   90.00039949
_cell_angle_beta   90.00028031
_cell_angle_gamma   94.66185918
_symmetry_Int_Tables_number   1
_chemical_formula_structural   CdH14C28(NO2)4
_chemical_formula_sum   'Cd4 H56 C112 N16 O32'
_cell_volume   3484.24946746
_cell_formula_units_Z   4
loop_
 _symmetry_equiv_pos_site_id
 _symmetry_equiv_pos_as_xyz
  1  'x, y, z'
loop_
 _atom_site_type_symbol
 _atom_site_label
 _atom_site_symmetry_multiplicity
 _atom_site_fract_x
 _atom_site_fract_y
 _atom_site_fract_z
 _atom_site_occupancy
 _atom_site_pbe_bader_charge
 _atom_site_pbe_bader_spin_density
 _atom_site_pbe_cm5_charge
 _atom_site_pbe_ddec_charge
 _atom_site_pbe_ddec_spin_density
 _atom_site_pbe_ddec_sum_bond_order
 _atom_site_pbe_magmom
Cd  Cd0  1  0.69090767  0.01086083  0.44436741  1  1.275175  0  0.781515  0.878885  0  2.171903  0
Cd  Cd1  1  0.30911335  0.48914679  0.94436718  1  1.275169  0  0.781473  0.87877  0  2.172185  0
Cd  Cd2  1  0.30910712  0.98914603  0.55563335  1  1.275023  0  0.781492  0.878844  0  2.172126  0
Cd  Cd3  1  0.69089116  0.51085684  0.05563757  1  1.275193  0  0.781462  0.878766  0  2.172173  0
H  H4  1  0.03170189  0.16629353  0.45403024  1  0.113899  0  0.106173  0.108039  0  1.037803  0
H  H5  1  0.96961594  0.25900052  0.37835771  1  0.14127  0  0.1179  0.124203  0  0.971278  0
H  H6  1  0.50030881  0.14314397  0.37339792  1  0.184097  0  0.11315  0.132834  0  1.041747  0
H  H7  1  0.41831990  0.51521894  0.15569555  1  0.136061  0  0.11684  0.088946  0  1.011111  0
H  H8  1  0.29768043  0.43995883  0.23916174  1  0.118673  0  0.112242  0.128747  0  1.021396  0
H  H9  1  0.55937054  0.26735312  0.17053797  1  0.18648  0  0.117587  0.14338  0  1.01917  0
H  H10  1  0.66857421  0.34933864  0.09166496  1  0.139721  0  0.121473  0.09783  0  0.991512  0
H  H11  1  0.14211050  0.02175067  0.30774847  1  0.090402  0  0.107448  0.10825  0  1.025869  0
H  H12  1  0.31981048  0.06765624  0.22140851  1  0.092477  0  0.113263  0.117233  0  0.981712  0
H  H13  1  0.78164598  0.16654902  0.26497752  1  0.181881  0  0.114516  0.134315  0  1.033641  0
H  H14  1  0.34348588  0.32462214  0.95648528  1  0.127464  0  0.117772  0.089583  0  1.007239  0
H  H15  1  0.27905154  0.22286082  0.02617891  1  0.115453  0  0.117559  0.140201  0  0.988342  0
H  H16  1  0.03201283  0.36853650  0.13674051  1  0.13709  0  0.121399  0.14635  0  0.987842  0
H  H17  1  0.10302672  0.46246564  0.06277029  1  0.148379  0  0.121412  0.104325  0  1.005467  0
H  H18  1  0.96828188  0.33370875  0.95402450  1  0.113241  0  0.106253  0.108136  0  1.037834  0
H  H19  1  0.03036303  0.24099415  0.87835866  1  0.141456  0  0.117949  0.124227  0  0.971459  0
H  H20  1  0.49967273  0.35684480  0.87339815  1  0.184112  0  0.113166  0.132823  0  1.041717  0
H  H21  1  0.58165618  0.98477411  0.65569001  1  0.135709  0  0.116826  0.088937  0  1.011197  0
H  H22  1  0.70229352  0.06003192  0.73916060  1  0.119243  0  0.112248  0.128746  0  1.021513  0
H  H23  1  0.44062245  0.23264080  0.67053559  1  0.186432  0  0.117585  0.143383  0  1.019334  0
H  H24  1  0.33140221  0.15065720  0.59166281  1  0.139161  0  0.121546  0.097999  0  0.991434  0
H  H25  1  0.85788263  0.47824714  0.80775046  1  0.090735  0  0.107437  0.108254  0  1.025842  0
H  H26  1  0.68018415  0.43233601  0.72141170  1  0.092263  0  0.1133  0.117296  0  0.981663  0
H  H27  1  0.21834518  0.33344787  0.76498376  1  0.181856  0  0.114521  0.134301  0  1.033587  0
H  H28  1  0.65652012  0.17537489  0.45648818  1  0.127583  0  0.117817  0.089623  0  1.007268  0
H  H29  1  0.72096624  0.27714040  0.52617861  1  0.115526  0  0.117548  0.14022  0  0.98831  0
H  H30  1  0.96800655  0.13146518  0.63673847  1  0.136929  0  0.121348  0.14631  0  0.987855  0
H  H31  1  0.89698368  0.03753217  0.56277113  1  0.148298  0  0.121422  0.104347  0  1.005445  0
H  H32  1  0.96830828  0.83370054  0.54597097  1  0.113682  0  0.106192  0.108039  0  1.037776  0
H  H33  1  0.03038403  0.74099085  0.62164217  1  0.141137  0  0.117994  0.124352  0  0.971157  0
H  H34  1  0.49969761  0.85684955  0.62659929  1  0.184357  0  0.113147  0.132827  0  1.041599  0
H  H35  1  0.58168202  0.48477670  0.84430787  1  0.136003  0  0.116825  0.088932  0  1.01117  0
H  H36  1  0.70232758  0.56003682  0.76084123  1  0.118569  0  0.112244  0.128631  0  1.021472  0
H  H37  1  0.44063662  0.73264467  0.82946014  1  0.18636  0  0.117575  0.143312  0  1.01931  0
H  H38  1  0.33142209  0.65065965  0.90833181  1  0.139778  0  0.121476  0.097804  0  0.991553  0
H  H39  1  0.85790149  0.97825406  0.69225052  1  0.090347  0  0.107418  0.108189  0  1.025938  0
H  H40  1  0.68019880  0.93234688  0.77858870  1  0.09252  0  0.113223  0.1172  0  0.98177  0
H  H41  1  0.21835472  0.83344661  0.73502058  1  0.181805  0  0.114505  0.134274  0  1.033597  0
H  H42  1  0.65652781  0.67537832  0.04351503  1  0.127127  0  0.117772  0.089577  0  1.007275  0
H  H43  1  0.72095653  0.77714229  0.97382274  1  0.115421  0  0.117548  0.140226  0  0.988271  0
H  H44  1  0.96800767  0.63146825  0.86326291  1  0.136976  0  0.121342  0.146278  0  0.987889  0
H  H45  1  0.89699603  0.53753805  0.93723135  1  0.148385  0  0.121417  0.104345  0  1.005438  0
H  H46  1  0.03169517  0.66630493  0.04596740  1  0.113642  0  0.106215  0.108053  0  1.037826  0
H  H47  1  0.96962414  0.75901477  0.12163989  1  0.141033  0  0.117959  0.124284  0  0.971185  0
H  H48  1  0.50029999  0.64315075  0.12659420  1  0.183872  0  0.113126  0.13287  0  1.041661  0
H  H49  1  0.41833385  0.01522310  0.34430587  1  0.135975  0  0.116793  0.088852  0  1.011264  0
H  H50  1  0.29769998  0.93996423  0.26083750  1  0.119227  0  0.11225  0.128768  0  1.021429  0
H  H51  1  0.55936365  0.76735479  0.32946516  1  0.186578  0  0.117559  0.14327  0  1.019353  0
H  H52  1  0.66857218  0.84934103  0.40833662  1  0.139727  0  0.121574  0.097978  0  0.991566  0
H  H53  1  0.14210655  0.52175219  0.19224986  1  0.090744  0  0.107412  0.108267  0  1.02589  0
H  H54  1  0.31981218  0.56765535  0.27858861  1  0.092463  0  0.113285  0.117258  0  0.981712  0
H  H55  1  0.78166128  0.66656004  0.23501833  1  0.181833  0  0.114534  0.134334  0  1.033553  0
H  H56  1  0.34348514  0.82462608  0.54351435  1  0.127476  0  0.117824  0.089626  0  1.007198  0
H  H57  1  0.27905016  0.72286167  0.47382304  1  0.115485  0  0.117526  0.140182  0  0.988372  0
H  H58  1  0.03199637  0.86853632  0.36326406  1  0.136606  0  0.121303  0.146213  0  0.9878  0
H  H59  1  0.10301392  0.96246666  0.43723317  1  0.148309  0  0.121433  0.104388  0  1.005427  0
C  C60  1  0.29616691  0.09299265  0.46345756  1  1.591224  0  0.199014  0.561373  0  4.231357  0
C  C61  1  0.26723093  0.14991282  0.41868506  1  0.009304  0  -0.003423  -0.01241  0  3.916411  0
C  C62  1  0.12003733  0.18302831  0.41992612  1  -0.012066  0  -0.065152  -0.065395  0  3.899235  0
C  C63  1  0.08562430  0.23480444  0.37828866  1  -0.081603  0  -0.065858  -0.072743  0  3.935929  0
C  C64  1  0.20491119  0.25377521  0.33626322  1  -0.048523  0  -0.008206  -0.057201  0  4.030843  0
C  C65  1  0.35248943  0.22166907  0.33563607  1  -0.062221  0  -0.013106  -0.063359  0  4.053533  0
C  C66  1  0.38636671  0.16898810  0.37569272  1  -0.039997  0  -0.066206  -0.098652  0  3.896241  0
C  C67  1  0.45591713  0.25333210  0.28736890  1  1.332261  0  0.254089  0.449397  0  4.07653  0
C  C68  1  0.20596631  0.30606735  0.28696931  1  1.334807  0  0.248733  0.439824  0  4.088662  0
C  C69  1  0.44493030  0.45979302  0.16095786  1  0.444383  0  0.046319  0.105939  0  3.961917  0
C  C70  1  0.37907928  0.41824860  0.20721812  1  -0.01392  0  -0.088546  -0.223077  0  3.95003  0
C  C71  1  0.41965400  0.34753968  0.21158657  1  0.333933  0  0.113003  0.246207  0  3.999739  0
C  C72  1  0.52319057  0.32138920  0.16911097  1  -0.00768  0  -0.07975  -0.199573  0  3.916777  0
C  C73  1  0.58428944  0.36717388  0.12474690  1  0.480678  0  0.055998  0.120358  0  3.915698  0
C  C74  1  0.86056255  0.06524775  0.34497390  1  1.571172  0  0.186773  0.546265  0  4.257689  0
C  C75  1  0.95505788  0.09109599  0.29076480  1  -0.011044  0  -0.001149  -0.005406  0  3.90682  0
C  C76  1  0.10454865  0.06316740  0.27825521  1  -0.018922  0  -0.06885  -0.076461  0  3.919052  0
C  C77  1  0.20212131  0.08811298  0.23069050  1  0.016278  0  -0.073262  -0.082258  0  3.95906  0
C  C78  1  0.14470968  0.14163447  0.19594500  1  -0.08371  0  -0.014284  -0.067139  0  4.05006  0
C  C79  1  0.99402282  0.16862228  0.20746509  1  -0.049768  0  -0.011424  -0.062342  0  4.028716  0
C  C80  1  0.89651975  0.14424574  0.25463294  1  0.003178  0  -0.05846  -0.077229  0  3.862968  0
C  C81  1  0.22347639  0.18065955  0.14515313  1  1.333181  0  0.247719  0.444639  0  4.094243  0
C  C82  1  0.96881059  0.22528979  0.16359218  1  1.336183  0  0.254561  0.452031  0  4.066132  0
C  C83  1  0.27509222  0.33163209  0.99712934  1  0.457073  0  0.044831  0.100653  0  3.972657  0
C  C84  1  0.23828890  0.27513228  0.03557577  1  0.036235  0  -0.085631  -0.217569  0  3.943456  0
C  C85  1  0.15039413  0.28767697  0.08729306  1  0.246245  0  0.116405  0.25028  0  4.005631  0
C  C86  1  0.10030977  0.35594805  0.09742788  1  0.028997  0  -0.0768  -0.203112  0  3.904093  0
C  C87  1  0.14140860  0.40901732  0.05607086  1  0.551797  0  0.056053  0.126635  0  3.922172  0
C  C88  1  0.70379914  0.40700487  0.96345489  1  1.590457  0  0.198923  0.561098  0  4.23149  0
C  C89  1  0.73274267  0.35008272  0.91868477  1  0.009623  0  -0.003391  -0.012212  0  3.916087  0
C  C90  1  0.87994031  0.31696938  0.91992279  1  -0.011209  0  -0.065293  -0.065511  0  3.899215  0
C  C91  1  0.91435570  0.26518917  0.87828863  1  -0.08115  0  -0.06596  -0.073053  0  3.936134  0
C  C92  1  0.79506716  0.24621216  0.83626598  1  -0.049121  0  -0.008134  -0.056707  0  4.030521  0
C  C93  1  0.64749032  0.27831936  0.83564008  1  -0.062753  0  -0.013063  -0.06369  0  4.053785  0
C  C94  1  0.61361420  0.33100389  0.87569210  1  -0.040657  0  -0.06623  -0.098525  0  3.896104  0
C  C95  1  0.54406008  0.24665962  0.78737166  1  1.332774  0  0.253878  0.44921  0  4.07672  0
C  C96  1  0.79400931  0.19392223  0.78697176  1  1.334727  0  0.248649  0.439552  0  4.088888  0
C  C97  1  0.55505150  0.04020026  0.66095324  1  0.444159  0  0.046348  0.106065  0  3.961735  0
C  C98  1  0.62089576  0.08174400  0.70721608  1  -0.014163  0  -0.088483  -0.22314  0  3.94998  0
C  C99  1  0.58033233  0.15245459  0.71158574  1  0.333191  0  0.112802  0.246014  0  4.000197  0
C  C100  1  0.47679809  0.17860789  0.66911057  1  -0.007226  0  -0.079725  -0.199524  0  3.91697  0
C  C101  1  0.41569384  0.13282387  0.62474524  1  0.481295  0  0.055989  0.120266  0  3.915421  0
C  C102  1  0.13944095  0.43475788  0.84497483  1  1.570349  0  0.186837  0.546462  0  4.257587  0
C  C103  1  0.04493638  0.40890273  0.79076985  1  -0.01099  0  -0.000998  -0.005341  0  3.906857  0
C  C104  1  0.89544357  0.43682748  0.77826013  1  -0.019533  0  -0.069023  -0.0767  0  3.91912  0
C  C105  1  0.79787008  0.41188094  0.73069511  1  0.016867  0  -0.073205  -0.082212  0  3.95882  0
C  C106  1  0.85528091  0.35835754  0.69595161  1  -0.08368  0  -0.014253  -0.067059  0  4.050098  0
C  C107  1  0.00596700  0.33137143  0.70747272  1  -0.049314  0  -0.011593  -0.062687  0  4.028944  0
C  C108  1  0.10347116  0.35575053  0.75464043  1  0.003295  0  -0.058424  -0.077002  0  3.862825  0
C  C109  1  0.77653221  0.31933526  0.64515584  1  1.333132  0  0.24774  0.444569  0  4.094548  0
C  C110  1  0.03119257  0.27470730  0.66360041  1  1.335174  0  0.254864  0.452529  0  4.065798  0
C  C111  1  0.72491347  0.16836691  0.49712965  1  0.417198  0  0.044744  0.10053  0  3.972822  0
C  C112  1  0.76172388  0.22486742  0.53557569  1  0.075926  0  -0.085652  -0.217627  0  3.943303  0
C  C113  1  0.84962553  0.21232321  0.58729527  1  0.245775  0  0.116553  0.25038  0  4.005477  0
C  C114  1  0.89970667  0.14405381  0.59742801  1  0.029437  0  -0.076768  -0.203112  0  3.903947  0
C  C115  1  0.85859963  0.09098255  0.55607239  1  0.551876  0  0.055992  0.126607  0  3.921886  0
C  C116  1  0.70384051  0.90700674  0.53654320  1  1.590737  0  0.199195  0.56178  0  4.230943  0
C  C117  1  0.73277829  0.85008284  0.58131348  1  0.009736  0  -0.003491  -0.012545  0  3.916476  0
C  C118  1  0.87996806  0.81696627  0.58007331  1  -0.011824  0  -0.065127  -0.065181  0  3.899238  0
C  C119  1  0.91437978  0.76518961  0.62171078  1  -0.081764  0  -0.065982  -0.073173  0  3.936006  0
C  C120  1  0.79509167  0.74621884  0.66373577  1  -0.048784  0  -0.008251  -0.057001  0  4.0307  0
C  C121  1  0.64751577  0.77832445  0.66436203  1  -0.06238  0  -0.013015  -0.063354  0  4.05348  0
C  C122  1  0.61363868  0.83100649  0.62430583  1  -0.04042  0  -0.066229  -0.098642  0  3.895905  0
C  C123  1  0.54408124  0.74666406  0.71262876  1  1.332847  0  0.254013  0.44938  0  4.076649  0
C  C124  1  0.79403749  0.69392510  0.71303012  1  1.3349  0  0.248672  0.439724  0  4.088809  0
C  C125  1  0.55507077  0.54020475  0.83904334  1  0.444332  0  0.04629  0.105902  0  3.961921  0
C  C126  1  0.62093004  0.58174759  0.79278352  1  -0.013869  0  -0.0886  -0.223015  0  3.950082  0
C  C127  1  0.58035261  0.65245491  0.78841242  1  0.333837  0  0.112951  0.246248  0  3.999871  0
C  C128  1  0.47681649  0.67860805  0.83088757  1  -0.007181  0  -0.07971  -0.199442  0  3.916783  0
C  C129  1  0.41571199  0.63282602  0.87525209  1  0.48053  0  0.055974  0.120346  0  3.915642  0
C  C130  1  0.13944935  0.93475644  0.65502819  1  1.570512  0  0.186875  0.546453  0  4.257655  0
C  C131  1  0.04494513  0.90890604  0.70923507  1  -0.01087  0  -0.001132  -0.005394  0  3.906849  0
C  C132  1  0.89545166  0.93683303  0.72174378  1  -0.018995  0  -0.068883  -0.076576  0  3.91923  0
C  C133  1  0.79788152  0.91188799  0.76930937  1  0.016302  0  -0.073214  -0.082113  0  3.958928  0
C  C134  1  0.85528990  0.85836170  0.80405266  1  -0.083876  0  -0.014292  -0.067243  0  4.0501  0
C  C135  1  0.00597329  0.83137495  0.79253213  1  -0.049657  0  -0.011426  -0.062361  0  4.028761  0
C  C136  1  0.10348001  0.85575150  0.74536428  1  0.003196  0  -0.058404  -0.077078  0  3.862821  0
C  C137  1  0.77653083  0.81934570  0.85484940  1  1.333196  0  0.247784  0.444747  0  4.094184  0
C  C138  1  0.03118963  0.77471011  0.83640415  1  1.336086  0  0.254695  0.452258  0  4.065872  0
C  C139  1  0.72491287  0.66836782  0.00287142  1  0.417577  0  0.044821  0.100695  0  3.972667  0
C  C140  1  0.76171889  0.72486924  0.96442676  1  0.07585  0  -0.085673  -0.217716  0  3.943298  0
C  C141  1  0.84961908  0.71232776  0.91270681  1  0.246544  0  0.11651  0.250403  0  4.00541  0
C  C142  1  0.89970203  0.64405560  0.90257288  1  0.029389  0  -0.076711  -0.203043  0  3.903743  0
C  C143  1  0.85861051  0.59098635  0.94393078  1  0.551644  0  0.056033  0.126709  0  3.921729  0
C  C144  1  0.29616851  0.59299653  0.03654100  1  1.5911  0  0.19914  0.56157  0  4.230918  0
C  C145  1  0.26722786  0.64992135  0.08130979  1  0.010041  0  -0.003435  -0.012492  0  3.916401  0
C  C146  1  0.12003685  0.68303791  0.08007044  1  -0.01223  0  -0.065205  -0.065341  0  3.899376  0
C  C147  1  0.08562830  0.73481548  0.12170859  1  -0.081003  0  -0.065935  -0.07305  0  3.936056  0
C  C148  1  0.20491913  0.75378451  0.16373257  1  -0.049259  0  -0.008247  -0.056941  0  4.03072  0
C  C149  1  0.35249120  0.72167782  0.16435979  1  -0.062424  0  -0.013091  -0.063497  0  4.053531  0
C  C150  1  0.38636421  0.66899648  0.12430334  1  -0.04009  0  -0.066183  -0.098587  0  3.89587  0
C  C151  1  0.45592900  0.75333918  0.21262777  1  1.332968  0  0.253938  0.44922  0  4.076687  0
C  C152  1  0.20597117  0.80607601  0.21302900  1  1.33513  0  0.248706  0.439875  0  4.088877  0
C  C153  1  0.44494208  0.95979643  0.33904353  1  0.443988  0  0.046278  0.105942  0  3.962104  0
C  C154  1  0.37909053  0.91825267  0.29278247  1  -0.014382  0  -0.088488  -0.223114  0  3.950055  0
C  C155  1  0.41965798  0.84754422  0.28841280  1  0.333696  0  0.112892  0.246195  0  3.999935  0
C  C156  1  0.52318848  0.82139037  0.33088931  1  -0.007679  0  -0.07968  -0.199352  0  3.916809  0
C  C157  1  0.58428907  0.86717438  0.37525464  1  0.480718  0  0.055877  0.120126  0  3.915817  0
C  C158  1  0.86056027  0.56524788  0.15502549  1  1.570881  0  0.186805  0.546353  0  4.257677  0
C  C159  1  0.95506551  0.59109983  0.20923135  1  -0.01119  0  -0.000996  -0.005255  0  3.906774  0
C  C160  1  0.10455254  0.56316974  0.22174284  1  -0.01937  0  -0.069016  -0.07673  0  3.919177  0
C  C161  1  0.20212874  0.58811789  0.26930654  1  0.015967  0  -0.073232  -0.082243  0  3.958981  0
C  C162  1  0.14472035  0.64164129  0.30405269  1  -0.082827  0  -0.014217  -0.067053  0  4.050048  0
C  C163  1  0.99403593  0.66863007  0.29252981  1  -0.050048  0  -0.011458  -0.062418  0  4.028756  0
C  C164  1  0.89653213  0.64425311  0.24536121  1  0.003398  0  -0.058498  -0.077239  0  3.862777  0
C  C165  1  0.22347093  0.68066038  0.35484847  1  1.333039  0  0.247823  0.444806  0  4.094065  0
C  C166  1  0.96882008  0.72529423  0.33640345  1  1.336049  0  0.254642  0.452174  0  4.065862  0
C  C167  1  0.27509591  0.83163674  0.50287199  1  0.457036  0  0.044755  0.100682  0  3.97264  0
C  C168  1  0.23828643  0.77513463  0.46442729  1  0.03609  0  -0.085635  -0.217618  0  3.943345  0
C  C169  1  0.15038478  0.78767885  0.41270770  1  0.246103  0  0.116427  0.250232  0  4.005574  0
C  C170  1  0.10030225  0.85594718  0.40257363  1  0.029933  0  -0.076622  -0.202888  0  3.903766  0
C  C171  1  0.14139703  0.90901787  0.44393192  1  0.551865  0  0.055938  0.12654  0  3.921849  0
N  N172  1  0.54635360  0.43506140  0.12048962  1  -1.228942  0  -0.332364  -0.240312  0  3.511738  0
N  N173  1  0.36087592  0.30361030  0.25875040  1  -1.148402  0  -0.237512  -0.24148  0  3.578789  0
N  N174  1  0.11570341  0.23308265  0.12910940  1  -1.17485  0  -0.236461  -0.243599  0  3.57775  0
N  N175  1  0.22848772  0.39750952  0.00709885  1  -1.242242  0  -0.335393  -0.247827  0  3.531962  0
N  N176  1  0.45362728  0.06493683  0.62048586  1  -1.228743  0  -0.332519  -0.240485  0  3.511868  0
N  N177  1  0.63910441  0.19638065  0.75875215  1  -1.147628  0  -0.23728  -0.241167  0  3.578746  0
N  N178  1  0.88431437  0.26691736  0.62911066  1  -1.174504  0  -0.236689  -0.243828  0  3.578061  0
N  N179  1  0.77151480  0.10248937  0.50709940  1  -1.242252  0  -0.335358  -0.247709  0  3.531904  0
N  N180  1  0.45364540  0.56493849  0.87951069  1  -1.229037  0  -0.332294  -0.240254  0  3.511591  0
N  N181  1  0.63912600  0.69638535  0.74124991  1  -1.148342  0  -0.237332  -0.241422  0  3.578714  0
N  N182  1  0.88430484  0.76692153  0.87089003  1  -1.174979  0  -0.236538  -0.243718  0  3.577945  0
N  N183  1  0.77151971  0.60248987  0.99290324  1  -1.242263  0  -0.335441  -0.247948  0  3.531803  0
N  N184  1  0.54636564  0.93506304  0.37951268  1  -1.228748  0  -0.332353  -0.24027  0  3.511783  0
N  N185  1  0.36088075  0.80361654  0.24124905  1  -1.148013  0  -0.237304  -0.241461  0  3.578798  0
N  N186  1  0.11570176  0.73308311  0.37089010  1  -1.1749  0  -0.236493  -0.243663  0  3.577807  0
N  N187  1  0.22848569  0.89751213  0.49290357  1  -1.242399  0  -0.335356  -0.247856  0  3.531974  0
O  O188  1  0.41991079  0.05734631  0.45739829  1  -1.195621  0  -0.331944  -0.591006  0  2.324231  0
O  O189  1  0.19374263  0.08278569  0.50554017  1  -1.153539  0  -0.319275  -0.537352  0  2.21815  0
O  O190  1  0.09938942  0.34355140  0.27128962  1  -1.098354  0  -0.256785  -0.40075  0  2.081641  0
O  O191  1  0.59521866  0.24237101  0.27397657  1  -1.092685  0  -0.235754  -0.383217  0  2.1559  0
O  O192  1  0.73013276  0.09395435  0.35762881  1  -1.173052  0  -0.333609  -0.570109  0  2.18859  0
O  O193  1  0.91774342  0.01627426  0.37580170  1  -1.165123  0  -0.331215  -0.553502  0  2.181149  0
O  O194  1  0.85025992  0.25858096  0.15490101  1  -1.092698  0  -0.232754  -0.38122  0  2.15201  0
O  O195  1  0.35423916  0.17227901  0.12151629  1  -1.100542  0  -0.260536  -0.412362  0  2.093954  0
O  O196  1  0.58006144  0.44265224  0.95738719  1  -1.194665  0  -0.331952  -0.590967  0  2.324181  0
O  O197  1  0.80622064  0.41721840  0.00553764  1  -1.153643  0  -0.319161  -0.537182  0  2.218515  0
O  O198  1  0.90057979  0.15643749  0.77129204  1  -1.098508  0  -0.256722  -0.400601  0  2.081668  0
O  O199  1  0.40476416  0.25761901  0.77397517  1  -1.092734  0  -0.235626  -0.383087  0  2.156052  0
O  O200  1  0.26988064  0.40605834  0.85762537  1  -1.172647  0  -0.333627  -0.570166  0  2.188651  0
O  O201  1  0.08225325  0.48373162  0.87580149  1  -1.164767  0  -0.331216  -0.553562  0  2.181171  0
O  O202  1  0.14975276  0.24141555  0.65490793  1  -1.092625  0  -0.232868  -0.381419  0  2.151784  0
O  O203  1  0.64577233  0.32772039  0.62151394  1  -1.100368  0  -0.260555  -0.412353  0  2.094235  0
O  O204  1  0.58009767  0.94265201  0.54260601  1  -1.195474  0  -0.332011  -0.591244  0  2.324135  0
O  O205  1  0.80626292  0.91721689  0.49446059  1  -1.153116  0  -0.319348  -0.537508  0  2.218064  0
O  O206  1  0.90061232  0.65644317  0.72871202  1  -1.098482  0  -0.256769  -0.40072  0  2.081829  0
O  O207  1  0.40478907  0.75762305  0.72602241  1  -1.092814  0  -0.235766  -0.383251  0  2.156185  0
O  O208  1  0.26989688  0.90606108  0.64237993  1  -1.172476  0  -0.333693  -0.57024  0  2.188627  0
O  O209  1  0.08226166  0.98372565  0.62419685  1  -1.165108  0  -0.331213  -0.553564  0  2.181184  0
O  O210  1  0.14974909  0.74142056  0.84509576  1  -1.092695  0  -0.232832  -0.381346  0  2.151829  0
O  O211  1  0.64578020  0.82773319  0.87849244  1  -1.100444  0  -0.260606  -0.412451  0  2.093882  0
O  O212  1  0.41991546  0.55735345  0.04260559  1  -1.195527  0  -0.332012  -0.591108  0  2.324116  0
O  O213  1  0.19374953  0.58278355  0.99445692  1  -1.153535  0  -0.319313  -0.537394  0  2.218113  0
O  O214  1  0.09940894  0.84355918  0.22871049  1  -1.098665  0  -0.256733  -0.400719  0  2.081973  0
O  O215  1  0.59522034  0.74238138  0.22601806  1  -1.092801  0  -0.235687  -0.38309  0  2.156214  0
O  O216  1  0.73011247  0.59394260  0.14237849  1  -1.172763  0  -0.333637  -0.570138  0  2.188655  0
O  O217  1  0.91774843  0.51627680  0.12419529  1  -1.165151  0  -0.331222  -0.553545  0  2.181099  0
O  O218  1  0.85025719  0.75858438  0.34509327  1  -1.092639  0  -0.232842  -0.381331  0  2.151695  0
O  O219  1  0.35422539  0.67227205  0.37849080  1  -1.100414  0  -0.260612  -0.412456  0  2.093799  0
