# generated using pymatgen
data_ZnH24C30(NO2)2
_symmetry_space_group_name_H-M   'P 1'
_cell_length_a   15.45384158
_cell_length_b   21.82477373
_cell_length_c   21.82476732
_cell_angle_alpha   120.00008159
_cell_angle_beta   90.00000847
_cell_angle_gamma   89.99998196
_symmetry_Int_Tables_number   1
_chemical_formula_structural   ZnH24C30(NO2)2
_chemical_formula_sum   'Zn6 H144 C180 N12 O24'
_cell_volume   6374.79322735
_cell_formula_units_Z   6
loop_
 _symmetry_equiv_pos_site_id
 _symmetry_equiv_pos_as_xyz
  1  'x, y, z'
loop_
 _atom_site_type_symbol
 _atom_site_label
 _atom_site_symmetry_multiplicity
 _atom_site_fract_x
 _atom_site_fract_y
 _atom_site_fract_z
 _atom_site_occupancy
 _atom_site_pbe_bader_charge
 _atom_site_pbe_bader_spin_density
 _atom_site_pbe_cm5_charge
 _atom_site_pbe_ddec_charge
 _atom_site_pbe_ddec_spin_density
 _atom_site_pbe_ddec_sum_bond_order
 _atom_site_pbe_magmom
Zn  Zn0  1  0.24790977  0.50239988  0.00257174  1  1.334175  0  0.678525  0.797116  0  2.412216  0
Zn  Zn1  1  0.24790982  0.50017235  0.49760063  1  1.330338  0  0.67854  0.797153  0  2.412196  0
Zn  Zn2  1  0.24791036  0.99742758  0.49982695  1  1.330473  0  0.678529  0.79713  0  2.412203  0
Zn  Zn3  1  0.75209001  0.49760000  0.99742793  1  1.334071  0  0.67853  0.797155  0  2.412218  0
Zn  Zn4  1  0.75208996  0.49982682  0.50239884  1  1.330391  0  0.67852  0.797117  0  2.412197  0
Zn  Zn5  1  0.75209007  0.00257277  0.50017317  1  1.330451  0  0.678563  0.797236  0  2.412123  0
H  H6  1  0.45167200  0.91100333  0.39547596  1  0.143625  0  0.108634  0.119982  0  1.046763  0
H  H7  1  0.45167206  0.48447229  0.08899682  1  0.131238  0  0.108626  0.119962  0  1.046769  0
H  H8  1  0.45167208  0.60452451  0.51552797  1  0.141381  0  0.108626  0.119965  0  1.04675  0
H  H9  1  0.54832778  0.08899656  0.60452370  1  0.143631  0  0.108636  0.119989  0  1.046761  0
H  H10  1  0.54832837  0.51552661  0.91100291  1  0.131244  0  0.108638  0.11998  0  1.046755  0
H  H11  1  0.54832835  0.39547629  0.48447261  1  0.141368  0  0.10864  0.119981  0  1.046739  0
H  H12  1  0.05101519  0.08433061  0.61330156  1  0.140766  0  0.107446  0.1209  0  1.049522  0
H  H13  1  0.05101577  0.52897114  0.91566999  1  0.128038  0  0.107421  0.120888  0  1.049456  0
H  H14  1  0.05101576  0.38669853  0.47102886  1  0.131649  0  0.107414  0.120893  0  1.049454  0
H  H15  1  0.94898394  0.91566947  0.38669882  1  0.140767  0  0.107404  0.120865  0  1.049469  0
H  H16  1  0.94898466  0.47102894  0.08433040  1  0.128036  0  0.107441  0.12091  0  1.049479  0
H  H17  1  0.94898402  0.61330135  0.52897081  1  0.131654  0  0.107418  0.120886  0  1.049458  0
H  H18  1  0.93722721  0.00666047  0.53103753  1  0.13239  0  0.118799  0.088665  0  1.021307  0
H  H19  1  0.93722779  0.52437757  0.99334017  1  0.092847  0  0.118783  0.088656  0  1.021277  0
H  H20  1  0.93722840  0.46896267  0.47562289  1  0.106243  0  0.11879  0.088664  0  1.021273  0
H  H21  1  0.06277257  0.99333987  0.46896259  1  0.132346  0  0.118796  0.088673  0  1.021304  0
H  H22  1  0.06277264  0.47562278  0.00665995  1  0.092985  0  0.118795  0.088644  0  1.021282  0
H  H23  1  0.06277203  0.53103768  0.52437723  1  0.106298  0  0.118801  0.088667  0  1.021273  0
H  H24  1  0.29837891  0.27290339  0.86736948  1  0.009567  0  0.085368  0.10844  0  1.077555  0
H  H25  1  0.29837818  0.59446624  0.72709614  1  0.047045  0  0.085354  0.108433  0  1.077603  0
H  H26  1  0.29837890  0.13263012  0.40553433  1  0.035465  0  0.085377  0.108471  0  1.07756  0
H  H27  1  0.70162087  0.72709604  0.13262972  1  0.009562  0  0.08538  0.108449  0  1.077582  0
H  H28  1  0.70162095  0.40553365  0.27290352  1  0.047024  0  0.08537  0.108451  0  1.077591  0
H  H29  1  0.70162088  0.86736997  0.59446606  1  0.035467  0  0.085382  0.10845  0  1.077556  0
H  H30  1  0.20277662  0.73270666  0.13688320  1  0.064332  0  0.085568  0.110894  0  1.074334  0
H  H31  1  0.20277670  0.40417660  0.26729422  1  0.011473  0  0.085576  0.110909  0  1.074317  0
H  H32  1  0.20277728  0.86311722  0.59582307  1  0.016357  0  0.085585  0.110922  0  1.074325  0
H  H33  1  0.79722381  0.26729441  0.86311711  1  0.064359  0  0.085592  0.110905  0  1.07431  0
H  H34  1  0.79722308  0.59582302  0.73270571  1  0.011465  0  0.08559  0.110936  0  1.074328  0
H  H35  1  0.79722314  0.13688313  0.40417705  1  0.016348  0  0.085583  0.11091  0  1.074328  0
H  H36  1  0.56456560  0.98831535  0.47945333  1  0.088279  0  0.117255  0.084404  0  1.028264  0
H  H37  1  0.56456566  0.49113799  0.01168466  1  0.082135  0  0.117257  0.084411  0  1.028242  0
H  H38  1  0.56456636  0.52054564  0.50886112  1  0.082862  0  0.117286  0.084441  0  1.028242  0
H  H39  1  0.43543418  0.01168453  0.52054633  1  0.088314  0  0.117282  0.084416  0  1.028252  0
H  H40  1  0.43543347  0.50886163  0.98831527  1  0.082185  0  0.117248  0.084386  0  1.028287  0
H  H41  1  0.43543407  0.47945353  0.49113835  1  0.082885  0  0.11729  0.084442  0  1.028223  0
H  H42  1  0.07196657  0.39213057  0.84041828  1  0.151763  0  0.099074  0.100518  0  1.046731  0
H  H43  1  0.07196589  0.44828808  0.60786915  1  0.080876  0  0.099077  0.100519  0  1.046741  0
H  H44  1  0.07196659  0.15958098  0.55171179  1  0.08774  0  0.099072  0.100509  0  1.046739  0
H  H45  1  0.92803321  0.60786886  0.15958092  1  0.151752  0  0.099081  0.100521  0  1.046734  0
H  H46  1  0.92803389  0.55171154  0.39213077  1  0.080883  0  0.099073  0.10051  0  1.046744  0
H  H47  1  0.92803319  0.84041891  0.44828787  1  0.087741  0  0.099074  0.100518  0  1.046729  0
H  H48  1  0.85096578  0.24272929  0.71961424  1  0.077851  0  0.105636  0.11089  0  1.018282  0
H  H49  1  0.85096638  0.47688521  0.75727177  1  0.064817  0  0.105632  0.11093  0  1.018306  0
H  H50  1  0.85096640  0.28038597  0.52311485  1  0.079124  0  0.10565  0.110929  0  1.018206  0
H  H51  1  0.14903400  0.75727132  0.28038561  1  0.077831  0  0.10567  0.110988  0  1.018253  0
H  H52  1  0.14903405  0.52311514  0.24272835  1  0.064814  0  0.105632  0.110919  0  1.018302  0
H  H53  1  0.14903403  0.71961365  0.47688508  1  0.079123  0  0.105682  0.111013  0  1.018194  0
H  H54  1  0.96459059  0.31677049  0.74938912  1  0.05342  0  0.098985  0.096299  0  1.014991  0
H  H55  1  0.96458991  0.43261949  0.68322955  1  0.05551  0  0.098999  0.096331  0  1.01498  0
H  H56  1  0.96459058  0.25061006  0.56738074  1  0.055165  0  0.098985  0.096297  0  1.014995  0
H  H57  1  0.03540919  0.68322893  0.25061008  1  0.053427  0  0.098985  0.096292  0  1.014985  0
H  H58  1  0.03540923  0.56738086  0.31677057  1  0.055512  0  0.098996  0.096321  0  1.014998  0
H  H59  1  0.03540920  0.74938983  0.43261892  1  0.05513  0  0.098986  0.096315  0  1.015006  0
H  H60  1  0.38151274  0.86795749  0.30592734  1  0.110514  0  0.102265  0.105244  0  1.037692  0
H  H61  1  0.38151282  0.43796901  0.13204259  1  0.113298  0  0.102256  0.105237  0  1.037658  0
H  H62  1  0.38151281  0.69407365  0.56203082  1  0.107619  0  0.102263  0.105249  0  1.03763  0
H  H63  1  0.61848704  0.13204259  0.69407305  1  0.110525  0  0.102257  0.105247  0  1.037668  0
H  H64  1  0.61848696  0.56203035  0.86795760  1  0.113282  0  0.102256  0.105257  0  1.037638  0
H  H65  1  0.61848697  0.30592669  0.43796930  1  0.107598  0  0.102263  0.105252  0  1.037626  0
H  H66  1  0.27426693  0.79289315  0.21901957  1  0.071625  0  0.099777  0.097849  0  1.02299  0
H  H67  1  0.27426701  0.42612671  0.20710766  1  0.065601  0  0.099773  0.097833  0  1.02301  0
H  H68  1  0.27426632  0.78098040  0.57387254  1  0.07648  0  0.09978  0.097859  0  1.022967  0
H  H69  1  0.72573350  0.20710700  0.78097983  1  0.071552  0  0.099768  0.09783  0  1.022988  0
H  H70  1  0.72573472  0.57387356  0.79289345  1  0.065574  0  0.099785  0.097857  0  1.022934  0
H  H71  1  0.72573411  0.21901976  0.42612686  1  0.076464  0  0.099767  0.09782  0  1.02299  0
H  H72  1  0.65965784  0.77164835  0.26805115  1  0.068575  0  0.104155  0.109012  0  1.029294  0
H  H73  1  0.65965790  0.49640298  0.22835223  1  0.10171  0  0.104153  0.109003  0  1.029289  0
H  H74  1  0.65965788  0.73194945  0.50359757  1  0.098876  0  0.104132  0.108951  0  1.029309  0
H  H75  1  0.34034194  0.22835200  0.73194897  1  0.068569  0  0.10415  0.109001  0  1.029302  0
H  H76  1  0.34034188  0.50359782  0.77164835  1  0.101696  0  0.104127  0.108956  0  1.029297  0
H  H77  1  0.34034255  0.26804998  0.49640164  1  0.098876  0  0.104135  0.108969  0  1.029284  0
H  H78  1  0.01823351  0.65517706  0.04903814  1  0.070796  0  0.09659  0.148078  0  0.998122  0
H  H79  1  0.01823296  0.39386107  0.34482251  1  0.059879  0  0.096571  0.148075  0  0.998057  0
H  H80  1  0.01823351  0.95096104  0.60613847  1  0.061597  0  0.096567  0.14806  0  0.998067  0
H  H81  1  0.98176756  0.34482237  0.95096107  1  0.070748  0  0.096572  0.148072  0  0.998098  0
H  H82  1  0.98176618  0.60613882  0.65517715  1  0.059888  0  0.09658  0.148075  0  0.998071  0
H  H83  1  0.98176692  0.04903884  0.39386119  1  0.064669  0  0.096578  0.148065  0  0.998115  0
H  H84  1  0.07667593  0.73645256  0.08799220  1  0.042965  0  0.08985  0.136408  0  0.999063  0
H  H85  1  0.07667668  0.35153953  0.26354762  1  0.044177  0  0.089862  0.136416  0  0.999086  0
H  H86  1  0.07667659  0.91200797  0.64846022  1  0.033477  0  0.089871  0.136428  0  0.999063  0
H  H87  1  0.92332321  0.26354805  0.91200765  1  0.042968  0  0.08987  0.136424  0  0.999095  0
H  H88  1  0.92332310  0.64846036  0.73645205  1  0.044194  0  0.089865  0.136415  0  0.999085  0
H  H89  1  0.92332319  0.08799237  0.35153990  1  0.03346  0  0.08986  0.136404  0  0.99908  0
H  H90  1  0.07367937  0.68011922  0.99404028  1  0.055343  0  0.09377  0.138621  0  0.999022  0
H  H91  1  0.07367938  0.31392105  0.31988066  1  0.037042  0  0.093767  0.138624  0  0.999017  0
H  H92  1  0.07367948  0.00595954  0.68607902  1  0.050093  0  0.09377  0.138629  0  0.999026  0
H  H93  1  0.92632041  0.31988066  0.00595939  1  0.055356  0  0.093773  0.138645  0  0.999042  0
H  H94  1  0.92632040  0.68607883  0.68011901  1  0.037044  0  0.093786  0.138653  0  0.999044  0
H  H95  1  0.92632030  0.99404080  0.31392110  1  0.050102  0  0.093775  0.138636  0  0.999046  0
H  H96  1  0.10190610  0.13114965  0.71861811  1  0.098693  0  0.103059  0.103536  0  1.024782  0
H  H97  1  0.10190666  0.58746849  0.86885018  1  0.037596  0  0.10308  0.103551  0  1.024775  0
H  H98  1  0.10190668  0.28138167  0.41253166  1  0.040834  0  0.103088  0.103568  0  1.024717  0
H  H99  1  0.89809368  0.86884997  0.28138182  1  0.098706  0  0.103042  0.103501  0  1.024787  0
H  H100  1  0.89809441  0.41253140  0.13114948  1  0.03759  0  0.103072  0.10358  0  1.024751  0
H  H101  1  0.89809375  0.71861822  0.58746800  1  0.040844  0  0.103038  0.103501  0  1.024758  0
H  H102  1  0.74752937  0.15823517  0.62840504  1  0.101833  0  0.118622  0.091987  0  0.993327  0
H  H103  1  0.74752997  0.47016973  0.84176506  1  0.090322  0  0.118619  0.091985  0  0.993358  0
H  H104  1  0.74752996  0.37159540  0.52983003  1  0.091305  0  0.118615  0.091978  0  0.993371  0
H  H105  1  0.25247041  0.84176517  0.37159508  1  0.101842  0  0.118607  0.091964  0  0.993386  0
H  H106  1  0.25247046  0.52983088  0.15823480  1  0.090313  0  0.118612  0.091971  0  0.993385  0
H  H107  1  0.25247047  0.62840468  0.47017035  1  0.09131  0  0.118621  0.092001  0  0.993352  0
H  H108  1  0.20660433  0.20627544  0.80950938  1  0.078499  0  0.102552  0.102451  0  1.008981  0
H  H109  1  0.20660359  0.60323451  0.79372489  1  0.037528  0  0.102531  0.102432  0  1.008863  0
H  H110  1  0.20660429  0.19049055  0.39676587  1  0.031133  0  0.102553  0.102452  0  1.008985  0
H  H111  1  0.79339545  0.79372491  0.19049074  1  0.078498  0  0.102557  0.102466  0  1.008946  0
H  H112  1  0.79339619  0.39676537  0.20627478  1  0.037527  0  0.102536  0.102437  0  1.008886  0
H  H113  1  0.79339614  0.80950954  0.60323451  1  0.031136  0  0.10254  0.102437  0  1.008895  0
H  H114  1  0.56277191  0.69347023  0.22029975  1  0.062695  0  0.100575  0.09932  0  1.014975  0
H  H115  1  0.56277131  0.52682969  0.30652979  1  0.052861  0  0.100554  0.099292  0  1.014956  0
H  H116  1  0.56277127  0.77969997  0.47317049  1  0.056498  0  0.100558  0.099273  0  1.01498  0
H  H117  1  0.43722852  0.30652965  0.77969992  1  0.062718  0  0.100568  0.09932  0  1.01496  0
H  H118  1  0.43722912  0.47317039  0.69347059  1  0.052889  0  0.10057  0.0993  0  1.014951  0
H  H119  1  0.43722916  0.22029992  0.52682917  1  0.056523  0  0.100575  0.099335  0  1.014967  0
H  H120  1  0.45301992  0.61839236  0.13285201  1  0.106977  0  0.099014  0.099492  0  1.044815  0
H  H121  1  0.45302062  0.51445953  0.38160772  1  0.09139  0  0.099007  0.099479  0  1.044819  0
H  H122  1  0.45301990  0.86714778  0.48554057  1  0.094485  0  0.098998  0.099454  0  1.04482  0
H  H123  1  0.54698051  0.38160726  0.86714792  1  0.106984  0  0.098997  0.099464  0  1.044847  0
H  H124  1  0.54698046  0.48554055  0.61839267  1  0.091417  0  0.099011  0.099481  0  1.044794  0
H  H125  1  0.54698052  0.13285257  0.51445955  1  0.094499  0  0.098986  0.099453  0  1.044861  0
H  H126  1  0.47390808  0.35257605  0.97923445  1  0.055775  0  0.094525  0.144136  0  1.005861  0
H  H127  1  0.47390734  0.62665751  0.64742293  1  0.046553  0  0.094503  0.144093  0  1.005873  0
H  H128  1  0.47390744  0.02076474  0.37334119  1  0.054971  0  0.094496  0.144086  0  1.005879  0
H  H129  1  0.52609170  0.64742337  0.02076476  1  0.055775  0  0.094499  0.144088  0  1.005858  0
H  H130  1  0.52609244  0.37334211  0.35257700  1  0.046546  0  0.094528  0.144138  0  1.005853  0
H  H131  1  0.52609234  0.97923461  0.62665900  1  0.054728  0  0.094503  0.144102  0  1.005855  0
H  H132  1  0.42235263  0.27046334  0.92052811  1  0.040771  0  0.09021  0.137022  0  1.001146  0
H  H133  1  0.42235252  0.65006485  0.72953621  1  0.046044  0  0.090205  0.137041  0  1.001145  0
H  H134  1  0.42235196  0.07947132  0.34993490  1  0.045165  0  0.090213  0.137036  0  1.001161  0
H  H135  1  0.57764716  0.72953609  0.07947109  1  0.040785  0  0.090199  0.137024  0  1.001184  0
H  H136  1  0.57764726  0.34993523  0.27046417  1  0.046049  0  0.0902  0.137032  0  1.001106  0
H  H137  1  0.57764717  0.92052830  0.65006503  1  0.045136  0  0.090209  0.137018  0  1.001149  0
H  H138  1  0.40190712  0.31412869  0.01340309  1  0.057135  0  0.096988  0.144168  0  0.986541  0
H  H139  1  0.40190646  0.69927362  0.68587067  1  0.059926  0  0.097003  0.144205  0  0.98654  0
H  H140  1  0.40190635  0.98659673  0.30072536  1  0.059804  0  0.096994  0.144168  0  0.986556  0
H  H141  1  0.59809331  0.68587120  0.98659658  1  0.057125  0  0.096987  0.144172  0  0.986539  0
H  H142  1  0.59809268  0.30072555  0.31412880  1  0.059922  0  0.096994  0.144188  0  0.986555  0
H  H143  1  0.59809343  0.01340289  0.69927457  1  0.059802  0  0.097017  0.144217  0  0.986507  0
H  H144  1  0.76177095  0.85419980  0.36058262  1  0.120437  0  0.116723  0.088816  0  0.999015  0
H  H145  1  0.76177101  0.50638354  0.14580079  1  0.126406  0  0.116735  0.088827  0  0.998948  0
H  H146  1  0.76177166  0.63941722  0.49361681  1  0.118918  0  0.116725  0.088824  0  0.998976  0
H  H147  1  0.23822883  0.14579982  0.63941731  1  0.120433  0  0.116719  0.088806  0  0.999022  0
H  H148  1  0.23822877  0.49361707  0.85419907  1  0.126401  0  0.116719  0.08881  0  0.998985  0
H  H149  1  0.23822941  0.36058241  0.50638312  1  0.118949  0  0.116734  0.088835  0  0.998966  0
C  C150  1  0.51948362  0.89546262  0.38447157  1  0.007278  0  -0.084242  -0.180134  0  3.937183  0
C  C151  1  0.51948303  0.48900821  0.10453810  1  -0.004234  0  -0.084135  -0.180013  0  3.937129  0
C  C152  1  0.51948369  0.61552993  0.51099226  1  -0.013821  0  -0.084164  -0.180023  0  3.937164  0
C  C153  1  0.48051616  0.10453746  0.61552882  1  0.007313  0  -0.08419  -0.180081  0  3.937143  0
C  C154  1  0.48051610  0.51099141  0.89546182  1  -0.004187  0  -0.08417  -0.180041  0  3.937101  0
C  C155  1  0.48051673  0.38447088  0.48900831  1  -0.013812  0  -0.084209  -0.180057  0  3.937118  0
C  C156  1  0.20613581  0.35461535  0.88978611  1  0.754948  0  0.114414  0.377092  0  4.093917  0
C  C157  1  0.20613510  0.53517104  0.64538442  1  0.718592  0  0.114359  0.377014  0  4.093861  0
C  C158  1  0.20613647  0.11021365  0.46482915  1  0.759408  0  0.114416  0.377118  0  4.093898  0
C  C159  1  0.79386332  0.64538454  0.11021355  1  0.75493  0  0.114428  0.377092  0  4.093791  0
C  C160  1  0.79386403  0.46482839  0.35461478  1  0.718569  0  0.114384  0.377051  0  4.093933  0
C  C161  1  0.79386331  0.88978624  0.53517051  1  0.759913  0  0.114397  0.376986  0  4.093922  0
C  C162  1  0.98464259  0.10381742  0.62007474  1  -0.08515  0  -0.085089  -0.18198  0  3.937755  0
C  C163  1  0.98464253  0.51625713  0.89618282  1  -0.049225  0  -0.085081  -0.182013  0  3.937585  0
C  C164  1  0.98464316  0.37992542  0.48374283  1  -0.063598  0  -0.085135  -0.182085  0  3.937653  0
C  C165  1  0.01535719  0.89618247  0.37992492  1  -0.085133  0  -0.085098  -0.18199  0  3.937575  0
C  C166  1  0.01535725  0.48374249  0.10381710  1  -0.049138  0  -0.085125  -0.18205  0  3.937668  0
C  C167  1  0.01535726  0.62007447  0.51625683  1  -0.063603  0  -0.085105  -0.182032  0  3.937604  0
C  C168  1  0.29387049  0.64999336  0.11330705  1  0.772064  0  0.114757  0.378871  0  4.089549  0
C  C169  1  0.29387055  0.46331420  0.35000755  1  0.757639  0  0.114725  0.378867  0  4.089575  0
C  C170  1  0.29387048  0.88669223  0.53668472  1  0.778698  0  0.114729  0.378839  0  4.089576  0
C  C171  1  0.70613059  0.35000679  0.88669235  1  0.772079  0  0.114753  0.37888  0  4.089596  0
C  C172  1  0.70612923  0.53668562  0.64999310  1  0.757638  0  0.114758  0.378887  0  4.08944  0
C  C173  1  0.70612995  0.11330720  0.46331449  1  0.778692  0  0.114757  0.378892  0  4.08951  0
C  C174  1  0.35602784  0.69950259  0.16874567  1  -0.019737  0  -0.014284  0.009445  0  3.950605  0
C  C175  1  0.35602855  0.46924368  0.30049815  1  -0.050204  0  -0.014309  0.0094  0  3.950507  0
C  C176  1  0.35602785  0.83125396  0.53075595  1  -0.0491  0  -0.014312  0.009455  0  3.950519  0
C  C177  1  0.64397194  0.30049756  0.83125373  1  -0.019709  0  -0.014301  0.009446  0  3.950522  0
C  C178  1  0.64397187  0.53075686  0.69950270  1  -0.050604  0  -0.014302  0.009425  0  3.950548  0
C  C179  1  0.64397193  0.16874619  0.46924344  1  -0.049094  0  -0.014312  0.009384  0  3.950562  0
C  C180  1  0.96094686  0.17146626  0.67470087  1  -0.009196  0  0.010569  0.109757  0  3.992733  0
C  C181  1  0.96094680  0.50323437  0.82853383  1  -0.002236  0  0.010587  0.109824  0  3.992732  0
C  C182  1  0.96094745  0.32529934  0.49676569  1  -0.016167  0  0.010637  0.109841  0  3.992714  0
C  C183  1  0.03905292  0.82853290  0.32529860  1  -0.00919  0  0.010648  0.109849  0  3.99269  0
C  C184  1  0.03905298  0.49676571  0.17146655  1  -0.002196  0  0.010619  0.109778  0  3.992794  0
C  C185  1  0.03905298  0.67470055  0.50323397  1  -0.016149  0  0.010628  0.109822  0  3.992716  0
C  C186  1  0.92198051  0.06006502  0.57312459  1  0.483372  0  0.048125  0.100228  0  3.941541  0
C  C187  1  0.92198045  0.51305941  0.93993546  1  0.508244  0  0.048135  0.10024  0  3.941444  0
C  C188  1  0.92198107  0.42687601  0.48694081  1  0.501987  0  0.048131  0.100237  0  3.941458  0
C  C189  1  0.07801927  0.93993532  0.42687554  1  0.48338  0  0.048142  0.100202  0  3.941485  0
C  C190  1  0.07801933  0.48694048  0.06006421  1  0.508073  0  0.048132  0.100292  0  3.941368  0
C  C191  1  0.07801872  0.57312407  0.51305957  1  0.501986  0  0.048115  0.100247  0  3.941428  0
C  C192  1  0.54523515  0.83321267  0.32306919  1  -0.007763  0  0.01245  0.114956  0  3.978838  0
C  C193  1  0.54523392  0.48985628  0.16678724  1  -0.023485  0  0.012426  0.114936  0  3.978812  0
C  C194  1  0.54523456  0.67693114  0.51014432  1  -0.002144  0  0.012435  0.114929  0  3.978836  0
C  C195  1  0.45476463  0.16678767  0.67693093  1  -0.007765  0  0.012465  0.114975  0  3.978821  0
C  C196  1  0.45476651  0.51014387  0.83321216  1  -0.023483  0  0.012424  0.114962  0  3.978768  0
C  C197  1  0.45476587  0.32306894  0.48985607  1  -0.002125  0  0.012462  0.114989  0  3.97875  0
C  C198  1  0.14722943  0.30525447  0.83119704  1  -0.039895  0  -0.015179  0.007552  0  3.953226  0
C  C199  1  0.14722807  0.52594295  0.69474588  1  0.05834  0  -0.01519  0.007516  0  3.953276  0
C  C200  1  0.14722942  0.16880237  0.47405703  1  -0.068275  0  -0.01517  0.007572  0  3.95321  0
C  C201  1  0.85277035  0.69474541  0.16880262  1  -0.0399  0  -0.015174  0.007565  0  3.953205  0
C  C202  1  0.85277106  0.47405667  0.30525405  1  0.058356  0  -0.015185  0.007531  0  3.953194  0
C  C203  1  0.85277036  0.83119752  0.52594263  1  -0.06827  0  -0.015169  0.007597  0  3.953179  0
C  C204  1  0.28262166  0.32809569  0.90338008  1  -0.017791  0  -0.169412  -0.473074  0  3.998841  0
C  C205  1  0.28262029  0.57528459  0.67190440  1  -0.029864  0  -0.169421  -0.473091  0  3.998861  0
C  C206  1  0.28262231  0.09662038  0.42471639  1  -0.050437  0  -0.169472  -0.473219  0  3.9989  0
C  C207  1  0.71737877  0.67190419  0.09661959  1  -0.017776  0  -0.169409  -0.473063  0  3.998889  0
C  C208  1  0.71737885  0.42471457  0.32809507  1  -0.030006  0  -0.16943  -0.473124  0  3.998895  0
C  C209  1  0.71737812  0.90337997  0.57528373  1  -0.050432  0  -0.169418  -0.473031  0  3.998877  0
C  C210  1  0.21632924  0.67692142  0.10177802  1  -0.094579  0  -0.169894  -0.47226  0  3.995071  0
C  C211  1  0.21632997  0.42485667  0.32307967  1  -0.030919  0  -0.169887  -0.472265  0  3.995015  0
C  C212  1  0.21632989  0.89822166  0.57514261  1  -0.064113  0  -0.169879  -0.472253  0  3.995023  0
C  C213  1  0.78367119  0.32307991  0.89822203  1  -0.094602  0  -0.169894  -0.472236  0  3.995109  0
C  C214  1  0.78367046  0.57514341  0.67692072  1  -0.031054  0  -0.169877  -0.472288  0  3.995021  0
C  C215  1  0.78367054  0.10177823  0.42485705  1  -0.064103  0  -0.169892  -0.472265  0  3.995043  0
C  C216  1  0.15590867  0.64064844  0.04643389  1  0.777465  0  0.117173  0.489469  0  4.031504  0
C  C217  1  0.15590940  0.40578545  0.35935157  1  0.774566  0  0.117112  0.489406  0  4.031367  0
C  C218  1  0.15590866  0.95356549  0.59421340  1  0.775738  0  0.117123  0.489419  0  4.031324  0
C  C219  1  0.84409111  0.35935171  0.95356551  1  0.777656  0  0.11711  0.489371  0  4.031408  0
C  C220  1  0.84409103  0.59421397  0.64064764  1  0.774917  0  0.11716  0.489486  0  4.031456  0
C  C221  1  0.84409112  0.04643467  0.40578600  1  0.775729  0  0.11709  0.489421  0  4.031365  0
C  C222  1  0.58172057  0.93897681  0.43206496  1  0.438861  0  0.044437  0.094027  0  3.956612  0
C  C223  1  0.58171998  0.49308825  0.06102390  1  0.456987  0  0.04438  0.093969  0  3.956499  0
C  C224  1  0.58172001  0.56793528  0.50691162  1  0.46781  0  0.044362  0.093896  0  3.956554  0
C  C225  1  0.41827921  0.06102353  0.56793516  1  0.438828  0  0.04437  0.093957  0  3.956608  0
C  C226  1  0.41827851  0.50691183  0.93897649  1  0.456996  0  0.044414  0.093996  0  3.956599  0
C  C227  1  0.41827912  0.43206480  0.49308876  1  0.467807  0  0.044369  0.09391  0  3.956604  0
C  C228  1  0.33915582  0.36395864  0.96178811  1  0.760122  0  0.117743  0.490141  0  4.027719  0
C  C229  1  0.33915444  0.59782966  0.63604140  1  0.757343  0  0.117753  0.490177  0  4.027775  0
C  C230  1  0.33915583  0.03821143  0.40217045  1  0.755497  0  0.117777  0.490207  0  4.0277  0
C  C231  1  0.66084461  0.63604124  0.03821156  1  0.760137  0  0.117735  0.490133  0  4.027716  0
C  C232  1  0.66084534  0.40217043  0.36395899  1  0.757403  0  0.117743  0.49016  0  4.027798  0
C  C233  1  0.66084395  0.96178820  0.59782948  1  0.755555  0  0.117716  0.49009  0  4.027798  0
C  C234  1  0.02499770  0.21805162  0.72733879  1  -0.029281  0  -0.008174  0.060255  0  4.004389  0
C  C235  1  0.02499764  0.50928726  0.78194814  1  0.010787  0  -0.008174  0.060273  0  4.004376  0
C  C236  1  0.02499831  0.27266122  0.49071276  1  0.030829  0  -0.008187  0.060256  0  4.004372  0
C  C237  1  0.97500144  0.78194801  0.27266114  1  -0.029304  0  -0.008223  0.060184  0  4.00446  0
C  C238  1  0.97500279  0.49071335  0.21805171  1  0.010735  0  -0.008152  0.060283  0  4.004398  0
C  C239  1  0.97500212  0.72733893  0.50928664  1  0.031201  0  -0.008182  0.060263  0  4.00438  0
C  C240  1  0.48105823  0.78699107  0.27013729  1  -0.055422  0  -0.008841  0.058651  0  3.998299  0
C  C241  1  0.48105830  0.48314625  0.21300932  1  -0.052044  0  -0.008842  0.058634  0  3.998394  0
C  C242  1  0.48105827  0.72986279  0.51685414  1  -0.061092  0  -0.008833  0.058648  0  3.998449  0
C  C243  1  0.51894219  0.21300881  0.72986238  1  -0.055439  0  -0.008812  0.058728  0  3.998365  0
C  C244  1  0.51894149  0.51685383  0.78699106  1  -0.052085  0  -0.008824  0.058653  0  3.998362  0
C  C245  1  0.51894280  0.27013729  0.48314624  1  -0.061125  0  -0.008869  0.058617  0  3.998364  0
C  C246  1  0.07785120  0.33476537  0.81306131  1  -0.107274  0  -0.085462  -0.094034  0  3.967067  0
C  C247  1  0.07784986  0.47829622  0.66523433  1  -0.058025  0  -0.085471  -0.094039  0  3.967103  0
C  C248  1  0.07785056  0.18693777  0.52170386  1  -0.038666  0  -0.08547  -0.094054  0  3.967065  0
C  C249  1  0.92214858  0.66523425  0.18693862  1  -0.10727  0  -0.085511  -0.094092  0  3.967122  0
C  C250  1  0.92214992  0.52170367  0.33476534  1  -0.058007  0  -0.085485  -0.094057  0  3.967145  0
C  C251  1  0.92214922  0.81306185  0.47829607  1  -0.038679  0  -0.085469  -0.09405  0  3.967074  0
C  C252  1  0.87391283  0.19160233  0.67761387  1  -0.096752  0  -0.089292  -0.191942  0  3.962587  0
C  C253  1  0.87391278  0.48601095  0.80839783  1  -0.065025  0  -0.089308  -0.192061  0  3.962751  0
C  C254  1  0.87391343  0.32238671  0.51398870  1  -0.058483  0  -0.089294  -0.191988  0  3.962564  0
C  C255  1  0.12608695  0.80839729  0.32238606  1  -0.096736  0  -0.089338  -0.192078  0  3.962656  0
C  C256  1  0.12608700  0.51398867  0.19160210  1  -0.065106  0  -0.089304  -0.191988  0  3.962725  0
C  C257  1  0.12608700  0.67761363  0.48601142  1  -0.058516  0  -0.089345  -0.19209  0  3.96259  0
C  C258  1  0.01757882  0.29215200  0.76235674  1  0.010911  0  -0.087825  -0.121617  0  3.976649  0
C  C259  1  0.01757812  0.47020549  0.70784828  1  -0.066183  0  -0.087846  -0.121657  0  3.976652  0
C  C260  1  0.01757880  0.23764261  0.52979467  1  -0.04158  0  -0.087813  -0.121589  0  3.976595  0
C  C261  1  0.98242097  0.70784788  0.23764292  1  0.010911  0  -0.087794  -0.121552  0  3.976635  0
C  C262  1  0.98242166  0.52979486  0.29215184  1  -0.066187  0  -0.087819  -0.121594  0  3.976719  0
C  C263  1  0.98242162  0.76235682  0.47020454  1  -0.041486  0  -0.087851  -0.121668  0  3.976675  0
C  C264  1  0.39837717  0.81318100  0.26827021  1  -0.01935  0  -0.089271  -0.128116  0  3.971589  0
C  C265  1  0.39837724  0.45508937  0.18681954  1  -0.056432  0  -0.08926  -0.128095  0  3.971568  0
C  C266  1  0.39837786  0.73173004  0.54491074  1  -0.017578  0  -0.089247  -0.128071  0  3.971554  0
C  C267  1  0.60162197  0.18681961  0.73172964  1  -0.019361  0  -0.089308  -0.128204  0  3.971748  0
C  C268  1  0.60162254  0.54491071  0.81318085  1  -0.056454  0  -0.089274  -0.128135  0  3.971565  0
C  C269  1  0.60162257  0.26827030  0.45508938  1  -0.017484  0  -0.089257  -0.128106  0  3.971521  0
C  C270  1  0.33733410  0.77032555  0.21842722  1  -0.102619  0  -0.089555  -0.111527  0  3.99648  0
C  C271  1  0.33733417  0.44810174  0.22967473  1  -0.027147  0  -0.089532  -0.111487  0  3.996483  0
C  C272  1  0.33733413  0.78157223  0.55189762  1  -0.085589  0  -0.089559  -0.111589  0  3.996411  0
C  C273  1  0.66266633  0.22967388  0.78157199  1  -0.102539  0  -0.089545  -0.111512  0  3.996432  0
C  C274  1  0.66266561  0.55189827  0.77032664  1  -0.02695  0  -0.089542  -0.111541  0  3.996474  0
C  C275  1  0.66266630  0.21842766  0.44810204  1  -0.085596  0  -0.089533  -0.111487  0  3.996412  0
C  C276  1  0.63446410  0.81828723  0.31467523  1  -0.07967  0  -0.088377  -0.188562  0  3.952923  0
C  C277  1  0.63446351  0.49638729  0.18171261  1  -0.080739  0  -0.088366  -0.188546  0  3.952875  0
C  C278  1  0.63446415  0.68532528  0.50361318  1  -0.093462  0  -0.088355  -0.188498  0  3.952922  0
C  C279  1  0.36553568  0.18171266  0.68532444  1  -0.079668  0  -0.088403  -0.188602  0  3.953033  0
C  C280  1  0.36553562  0.50361306  0.81828751  1  -0.080734  0  -0.088378  -0.188573  0  3.952895  0
C  C281  1  0.36553628  0.31467480  0.49638720  1  -0.093439  0  -0.088384  -0.188585  0  3.952904  0
C  C282  1  0.07707195  0.68126744  0.04494570  1  -0.127246  0  -0.245111  -0.477705  0  3.920513  0
C  C283  1  0.07707270  0.36367772  0.31873211  1  -0.095607  0  -0.245091  -0.477704  0  3.920447  0
C  C284  1  0.07707260  0.95505444  0.63632177  1  -0.101363  0  -0.245093  -0.477696  0  3.920424  0
C  C285  1  0.92292783  0.31873244  0.95505396  1  -0.127386  0  -0.245083  -0.477697  0  3.920523  0
C  C286  1  0.92292644  0.63632171  0.68126710  1  -0.095821  0  -0.245102  -0.477723  0  3.920508  0
C  C287  1  0.92292783  0.04494617  0.36367809  1  -0.104441  0  -0.245068  -0.477662  0  3.920519  0
C  C288  1  0.09523008  0.18848719  0.74460251  1  -0.049422  0  -0.089228  -0.130388  0  3.985544  0
C  C289  1  0.09523000  0.55611544  0.81151306  1  0.004469  0  -0.08926  -0.130456  0  3.985585  0
C  C290  1  0.09523003  0.25539764  0.44388484  1  -0.043519  0  -0.089264  -0.130469  0  3.985539  0
C  C291  1  0.90477035  0.81151244  0.25539742  1  -0.049419  0  -0.089205  -0.130329  0  3.985542  0
C  C292  1  0.90477042  0.44388471  0.18848634  1  0.004722  0  -0.089294  -0.130534  0  3.985559  0
C  C293  1  0.90477039  0.74460270  0.55611528  1  -0.043956  0  -0.089216  -0.130376  0  3.985505  0
C  C294  1  0.81560565  0.14458966  0.62767696  1  0.526685  0  0.047242  0.096038  0  3.959222  0
C  C295  1  0.81560625  0.48308671  0.85541059  1  0.506087  0  0.047301  0.096121  0  3.959218  0
C  C296  1  0.81560559  0.37232438  0.51691304  1  0.501781  0  0.047292  0.096105  0  3.959223  0
C  C297  1  0.18439413  0.85541069  0.37232316  1  0.526693  0  0.04724  0.09603  0  3.959308  0
C  C298  1  0.18439418  0.51691364  0.14458954  1  0.506178  0  0.047277  0.096085  0  3.959287  0
C  C299  1  0.18439354  0.62767596  0.48308708  1  0.501783  0  0.047266  0.09605  0  3.959225  0
C  C300  1  0.15490068  0.23127326  0.79589405  1  -0.085019  0  -0.08699  -0.108703  0  3.997268  0
C  C301  1  0.15489995  0.56462104  0.76872616  1  -0.090671  0  -0.086978  -0.108655  0  3.997167  0
C  C302  1  0.15490064  0.20410503  0.43537928  1  0.00458  0  -0.087004  -0.108686  0  3.997256  0
C  C303  1  0.84509911  0.76872590  0.20410542  1  -0.085009  0  -0.086983  -0.108713  0  3.997219  0
C  C304  1  0.84510048  0.43537911  0.23127324  1  -0.090933  0  -0.086963  -0.108632  0  3.997089  0
C  C305  1  0.84509978  0.79589459  0.56462065  1  0.004586  0  -0.086963  -0.108658  0  3.997134  0
C  C306  1  0.49986392  0.71610977  0.22024925  1  -0.034952  0  -0.087432  -0.121674  0  3.974075  0
C  C307  1  0.49986333  0.50413993  0.28389028  1  -0.02903  0  -0.087443  -0.121686  0  3.974159  0
C  C308  1  0.49986394  0.77975022  0.49586050  1  -0.039328  0  -0.087402  -0.121588  0  3.974141  0
C  C309  1  0.50013650  0.28389057  0.77975087  1  -0.034818  0  -0.087411  -0.121677  0  3.974145  0
C  C310  1  0.50013645  0.49586035  0.71611083  1  -0.029165  0  -0.087406  -0.121611  0  3.974116  0
C  C311  1  0.50013649  0.22024986  0.50413989  1  -0.0394  0  -0.087414  -0.121666  0  3.974113  0
C  C312  1  0.43841707  0.67338269  0.17088911  1  -0.067678  0  -0.085847  -0.092131  0  3.966435  0
C  C313  1  0.43841777  0.49750719  0.32661785  1  -0.063335  0  -0.085797  -0.092048  0  3.96638  0
C  C314  1  0.43841772  0.82911032  0.50249281  1  -0.037077  0  -0.085833  -0.092103  0  3.96638  0
C  C315  1  0.56158271  0.32661746  0.82911029  1  -0.067889  0  -0.085807  -0.092067  0  3.966515  0
C  C316  1  0.56158265  0.50249354  0.67338372  1  -0.062962  0  -0.085857  -0.092135  0  3.966429  0
C  C317  1  0.56158271  0.17088957  0.49750686  1  -0.037078  0  -0.085821  -0.092077  0  3.966452  0
C  C318  1  0.41359493  0.32222767  0.96818946  1  -0.104581  0  -0.24624  -0.47983  0  3.921767  0
C  C319  1  0.41359482  0.64596167  0.67777159  1  -0.106745  0  -0.246223  -0.479849  0  3.921756  0
C  C320  1  0.41359493  0.03180970  0.35403772  1  -0.111775  0  -0.246214  -0.479788  0  3.92178  0
C  C321  1  0.58640485  0.67777221  0.03181020  1  -0.104581  0  -0.246212  -0.479795  0  3.921748  0
C  C322  1  0.58640496  0.35403867  0.32222853  1  -0.10667  0  -0.246241  -0.479866  0  3.921769  0
C  C323  1  0.58640485  0.96819011  0.64596293  1  -0.111519  0  -0.246243  -0.479822  0  3.921703  0
C  C324  1  0.69229761  0.86442774  0.36573723  1  0.492828  0  0.047329  0.098952  0  3.959042  0
C  C325  1  0.69229702  0.50130947  0.13557297  1  0.472229  0  0.047327  0.098978  0  3.958909  0
C  C326  1  0.69229768  0.63426284  0.49869055  1  0.475261  0  0.047348  0.098972  0  3.959069  0
C  C327  1  0.30770217  0.13557234  0.63426316  1  0.492814  0  0.047333  0.098972  0  3.959074  0
C  C328  1  0.30770276  0.49869134  0.86442761  1  0.472222  0  0.047326  0.098978  0  3.959036  0
C  C329  1  0.30770340  0.36573678  0.50130937  1  0.475216  0  0.047322  0.098959  0  3.959012  0
N  N330  1  0.66673115  0.92424975  0.42345246  1  -1.238057  0  -0.323556  -0.226944  0  3.535336  0
N  N331  1  0.66673120  0.49920191  0.07574989  1  -1.223433  0  -0.323585  -0.226998  0  3.535242  0
N  N332  1  0.66673123  0.57654775  0.50079722  1  -1.234535  0  -0.323568  -0.226925  0  3.535293  0
N  N333  1  0.33326863  0.07575033  0.57654793  1  -1.238058  0  -0.323551  -0.226915  0  3.535323  0
N  N334  1  0.33326922  0.50079844  0.92425023  1  -1.223483  0  -0.323556  -0.226948  0  3.535395  0
N  N335  1  0.33326920  0.42345214  0.49920244  1  -1.234474  0  -0.323541  -0.226913  0  3.535372  0
N  N336  1  0.83886848  0.07963524  0.57649073  1  -1.249787  0  -0.322675  -0.22537  0  3.530221  0
N  N337  1  0.83886843  0.49685538  0.92036542  1  -1.244891  0  -0.322712  -0.225386  0  3.530129  0
N  N338  1  0.83886905  0.42350986  0.50314471  1  -1.241466  0  -0.322693  -0.225369  0  3.530145  0
N  N339  1  0.16113194  0.92036465  0.42350893  1  -1.249783  0  -0.322662  -0.225292  0  3.530176  0
N  N340  1  0.16113135  0.50314470  0.07963497  1  -1.244922  0  -0.322684  -0.225376  0  3.530114  0
N  N341  1  0.16113138  0.57649003  0.49685495  1  -1.241452  0  -0.322695  -0.225384  0  3.530125  0
O  O342  1  0.17972101  0.41871449  0.92419076  1  -1.15974  0  -0.301601  -0.481688  0  2.370947  0
O  O343  1  0.17972031  0.50547670  0.58128521  1  -1.150231  0  -0.301519  -0.481568  0  2.370889  0
O  O344  1  0.17972104  0.07580866  0.49452299  1  -1.152599  0  -0.301585  -0.481665  0  2.370921  0
O  O345  1  0.82027877  0.58128468  0.07580871  1  -1.159744  0  -0.301607  -0.481715  0  2.370873  0
O  O346  1  0.82027947  0.49452299  0.41871373  1  -1.150191  0  -0.301556  -0.481608  0  2.370949  0
O  O347  1  0.82027874  0.92419168  0.50547713  1  -1.153117  0  -0.301602  -0.481675  0  2.370911  0
O  O348  1  0.31829226  0.58527598  0.07948674  1  -1.155522  0  -0.303736  -0.484346  0  2.363551  0
O  O349  1  0.31829296  0.49421200  0.41472507  1  -1.151858  0  -0.303745  -0.48439  0  2.363609  0
O  O350  1  0.31829287  0.92051161  0.50578678  1  -1.150333  0  -0.303785  -0.484417  0  2.363552  0
O  O351  1  0.68170688  0.41472489  0.92051285  1  -1.155516  0  -0.303755  -0.484405  0  2.36355  0
O  O352  1  0.68170617  0.50578808  0.58527531  1  -1.151831  0  -0.303775  -0.484384  0  2.363489  0
O  O353  1  0.68170691  0.07948736  0.49421197  1  -1.150287  0  -0.303753  -0.484401  0  2.363544  0
O  O354  1  0.33235481  0.42837749  0.01111617  1  -1.167001  0  -0.304847  -0.498871  0  2.260017  0
O  O355  1  0.33235354  0.58273925  0.57162295  1  -1.153217  0  -0.304825  -0.498873  0  2.260084  0
O  O356  1  0.33235473  0.98888304  0.41726019  1  -1.150758  0  -0.304843  -0.49888  0  2.260044  0
O  O357  1  0.66764497  0.57162194  0.98888304  1  -1.166958  0  -0.304858  -0.498889  0  2.260013  0
O  O358  1  0.66764624  0.41726037  0.42837698  1  -1.153211  0  -0.304834  -0.498873  0  2.260093  0
O  O359  1  0.66764505  0.01111704  0.58274019  1  -1.1508  0  -0.304841  -0.498887  0  2.26005  0
O  O360  1  0.16162840  0.57638877  0.99652695  1  -1.159314  0  -0.306037  -0.498788  0  2.262808  0
O  O361  1  0.16162902  0.42013807  0.42361157  1  -1.156094  0  -0.305986  -0.498751  0  2.262685  0
O  O362  1  0.16162848  0.00347294  0.57986144  1  -1.152177  0  -0.305996  -0.498759  0  2.262683  0
O  O363  1  0.83837203  0.42361203  0.00347363  1  -1.159331  0  -0.306005  -0.498748  0  2.262664  0
O  O364  1  0.83837076  0.57986227  0.57638855  1  -1.156095  0  -0.306067  -0.498839  0  2.262782  0
O  O365  1  0.83837130  0.99652714  0.42013895  1  -1.15217  0  -0.306006  -0.498797  0  2.26264  0
