# generated using pymatgen
data_CuH12C17N2O3
_symmetry_space_group_name_H-M   'P 1'
_cell_length_a   10.54278108
_cell_length_b   19.13820347
_cell_length_c   19.13945034
_cell_angle_alpha   116.70751005
_cell_angle_beta   100.56523027
_cell_angle_gamma   100.57614583
_symmetry_Int_Tables_number   1
_chemical_formula_structural   CuH12C17N2O3
_chemical_formula_sum   'Cu6 H72 C102 N12 O18'
_cell_volume   3232.02364495
_cell_formula_units_Z   6
loop_
 _symmetry_equiv_pos_site_id
 _symmetry_equiv_pos_as_xyz
  1  'x, y, z'
loop_
 _atom_site_type_symbol
 _atom_site_label
 _atom_site_symmetry_multiplicity
 _atom_site_fract_x
 _atom_site_fract_y
 _atom_site_fract_z
 _atom_site_occupancy
 _atom_site_pbe_bader_charge
 _atom_site_pbe_bader_spin_density
 _atom_site_pbe_cm5_charge
 _atom_site_pbe_ddec_charge
 _atom_site_pbe_ddec_spin_density
 _atom_site_pbe_ddec_sum_bond_order
 _atom_site_pbe_magmom
Cu  Cu0  1  0.95106656  0.76890242  0.40213239  1  1.096275  0.580595  0.71671  0.78253  0.738303  2.329334  0.58
Cu  Cu1  1  0.54875452  0.59760786  0.36657086  1  1.095144  0.580681  0.717849  0.781987  0.73839  2.331761  0.58
Cu  Cu2  1  0.18233313  0.63331817  0.23112617  1  1.095663  0.580551  0.717656  0.783758  0.738152  2.329315  0.58
Cu  Cu3  1  0.45124728  0.40239323  0.63343201  1  1.095063  0.580681  0.71783  0.781978  0.738389  2.331758  0.58
Cu  Cu4  1  0.81766481  0.36668292  0.76887683  1  1.095671  0.580545  0.717669  0.783862  0.738139  2.329159  0.58
Cu  Cu5  1  0.04893590  0.23109806  0.59786714  1  1.096274  0.580594  0.716716  0.782539  0.738303  2.329365  0.58
H  H6  1  0.59028577  0.28190881  0.61552655  1  0.15251  0.001078  0.117653  0.090903  2.8e-05  1.052737  0.001
H  H7  1  0.97452330  0.38431664  0.66636709  1  0.141817  0.001094  0.118258  0.090351  2.2e-05  1.052913  0.001
H  H8  1  0.30865683  0.33379905  0.71801399  1  0.157047  0.001077  0.117677  0.090543  2.6e-05  1.052841  0.001
H  H9  1  0.02548403  0.61568199  0.33363159  1  0.141689  0.001094  0.118259  0.090353  2.2e-05  1.052922  0.001
H  H10  1  0.69133726  0.66620204  0.28198392  1  0.15699  0.001077  0.117659  0.09053  2.6e-05  1.052794  0.001
H  H11  1  0.40970867  0.71809106  0.38447345  1  0.152728  0.001078  0.117704  0.090965  2.8e-05  1.052679  0.001
H  H12  1  0.40969724  0.14803177  0.53148007  1  0.115108  0.00069  0.106153  0.110481  0.000336  1.052808  0.0
H  H13  1  0.87783682  0.46833410  0.61651285  1  0.105009  0.000689  0.106655  0.111663  0.000336  1.051834  0.0
H  H14  1  0.26108303  0.38351705  0.85169489  1  0.113806  0.000685  0.105801  0.110459  0.000336  1.053049  0.0
H  H15  1  0.12216919  0.53166576  0.38348885  1  0.105011  0.000689  0.106649  0.111624  0.000336  1.051953  0.0
H  H16  1  0.73891080  0.61648159  0.14830241  1  0.113695  0.000685  0.105825  0.110476  0.000336  1.052981  0.0
H  H17  1  0.59030045  0.85196687  0.46851710  1  0.115147  0.00069  0.106098  0.110402  0.000337  1.052704  0.0
H  H18  1  0.58082824  0.07574420  0.70231035  1  0.068195  0.000857  0.110639  0.116828  0.000444  0.99755  0.0
H  H19  1  0.87901408  0.29767626  0.37349951  1  0.063998  0.000858  0.111006  0.116952  0.000444  0.997705  0.0
H  H20  1  0.50571398  0.62656325  0.92454222  1  0.070924  0.000863  0.109644  0.116449  0.000446  0.998374  0.0
H  H21  1  0.12098356  0.70232422  0.62649952  1  0.064028  0.000858  0.110966  0.116871  0.000445  0.997659  0.0
H  H22  1  0.49428431  0.37343662  0.07545818  1  0.07092  0.000863  0.10966  0.116499  0.000446  0.99833  0.0
H  H23  1  0.41917173  0.92425321  0.29768493  1  0.068101  0.000857  0.110635  0.11686  0.000444  0.997546  0.0
H  H24  1  0.75741441  0.21261546  0.77803717  1  0.12349  0.001384  0.123055  0.100056  0.000601  0.993987  0.001
H  H25  1  0.97980599  0.22192913  0.43466803  1  0.128654  0.001384  0.122107  0.098914  0.000604  0.992609  0.001
H  H26  1  0.54608022  0.56551618  0.78781009  1  0.119817  0.001383  0.122627  0.100238  0.0006  0.993632  0.001
H  H27  1  0.02019236  0.77806890  0.56532789  1  0.128738  0.001385  0.122099  0.098914  0.000604  0.99269  0.001
H  H28  1  0.45391549  0.43448430  0.21218980  1  0.119793  0.001382  0.122623  0.100209  0.0006  0.993633  0.001
H  H29  1  0.24258328  0.78738318  0.22196053  1  0.123544  0.001384  0.123044  0.100073  0.000601  0.993946  0.001
H  H30  1  0.27206901  0.82135044  0.51027629  1  0.074127  -8e-05  0.110225  0.075782  -8.5e-05  1.010467  0.0
H  H31  1  0.76216288  0.48948898  0.31095540  1  0.086772  -7.9e-05  0.109995  0.075936  -8.6e-05  1.011009  0.0
H  H32  1  0.45121095  0.68877324  0.17859090  1  0.081817  -7.9e-05  0.110155  0.076021  -8.5e-05  1.010087  0.0
H  H33  1  0.23783804  0.51050843  0.68904312  1  0.086758  -7.9e-05  0.11  0.075971  -8.5e-05  1.010928  0.0
H  H34  1  0.54879051  0.31122908  0.82140779  1  0.081684  -7.9e-05  0.110145  0.076008  -8.5e-05  1.010058  0.0
H  H35  1  0.72792771  0.17864820  0.48972287  1  0.07411  -8e-05  0.11022  0.07577  -8.5e-05  1.010472  0.0
H  H36  1  0.47163123  0.94575817  0.58869355  1  0.072507  2e-06  0.102876  0.107137  -6e-06  1.03615  0.0
H  H37  1  0.88329023  0.41111852  0.35710805  1  0.071226  2e-06  0.102321  0.106404  -6e-06  1.036526  0.0
H  H38  1  0.52585424  0.64268192  0.05392932  1  0.091327  2e-06  0.102375  0.106854  -6e-06  1.036818  0.0
H  H39  1  0.11671227  0.58888012  0.64289275  1  0.071216  2e-06  0.102339  0.106441  -6e-06  1.036533  0.0
H  H40  1  0.47414831  0.35731487  0.94607013  1  0.091406  2e-06  0.102362  0.106806  -6e-06  1.036836  0.0
H  H41  1  0.52836615  0.05423985  0.41130541  1  0.07249  2e-06  0.102866  0.107128  -6e-06  1.036184  0.0
H  H42  1  0.21890640  0.07766174  0.52727112  1  0.120179  0.000192  0.110763  0.12847  0.000181  1.028899  0.0
H  H43  1  0.69137089  0.47252971  0.55018804  1  0.13164  0.000193  0.110504  0.128431  0.000183  1.027376  0.0
H  H44  1  0.14058386  0.45002889  0.92233472  1  0.135396  0.000194  0.110667  0.127983  0.000184  1.029307  0.0
H  H45  1  0.30863056  0.52747261  0.44981274  1  0.131619  0.000193  0.110509  0.128448  0.000183  1.027338  0.0
H  H46  1  0.85941473  0.54997159  0.07766702  1  0.136033  0.000194  0.110655  0.12797  0.000184  1.029327  0.0
H  H47  1  0.78109225  0.92233689  0.47272615  1  0.120073  0.000192  0.110734  0.128439  0.000182  1.02892  0.0
H  H48  1  0.03233583  0.94487462  0.44694801  1  0.112135  -0.000183  0.116317  0.088547  -0.000215  1.008815  0.0
H  H49  1  0.58545260  0.55298502  0.49772932  1  0.100005  -0.000187  0.116096  0.089179  -0.000216  1.010315  0.0
H  H50  1  0.08750764  0.50236666  0.05540859  1  0.120592  -0.000183  0.116768  0.088844  -0.000216  1.008596  0.0
H  H51  1  0.41454890  0.44701546  0.50226907  1  0.099949  -0.000187  0.116099  0.089179  -0.000216  1.010277  0.0
H  H52  1  0.91249446  0.49763505  0.94459458  1  0.120607  -0.000182  0.116704  0.088795  -0.000216  1.008576  0.0
H  H53  1  0.96766343  0.05512525  0.55305144  1  0.112105  -0.000183  0.116264  0.088453  -0.000215  1.008943  0.0
H  H54  1  0.39160221  0.71491177  0.57815460  1  0.049112  6.5e-05  0.090473  0.102736  2.9e-05  1.048894  0.0
H  H55  1  0.81377593  0.42145604  0.13656882  1  0.057701  5.7e-05  0.090482  0.102361  2.9e-05  1.050089  0.0
H  H56  1  0.67684889  0.86325699  0.28482693  1  0.058622  5.6e-05  0.090537  0.103716  2.9e-05  1.049641  0.0
H  H57  1  0.18622166  0.57854628  0.86343313  1  0.057857  5.7e-05  0.090485  0.102357  2.8e-05  1.050121  0.0
H  H58  1  0.32315230  0.13674288  0.71517272  1  0.058581  5.6e-05  0.090517  0.103687  2.9e-05  1.049684  0.0
H  H59  1  0.60840151  0.28508932  0.42184847  1  0.049449  6.5e-05  0.090453  0.102714  2.9e-05  1.048893  0.0
H  H60  1  0.48119105  0.85604419  0.69786720  1  0.053393  0.001313  0.096405  0.089947  0.00067  0.994643  0.001
H  H61  1  0.78377875  0.30184139  0.15815942  1  0.041583  0.001322  0.095324  0.088846  0.000672  0.994908  0.001
H  H62  1  0.62520828  0.84168091  0.14361964  1  0.046937  0.001319  0.095295  0.089074  0.000671  0.995166  0.001
H  H63  1  0.21622077  0.69816093  0.84184325  1  0.041521  0.001322  0.095343  0.088897  0.000672  0.99491  0.001
H  H64  1  0.37479327  0.15831772  0.85637949  1  0.046788  0.00132  0.095285  0.08903  0.000671  0.995178  0.001
H  H65  1  0.51881202  0.14395752  0.30213450  1  0.053409  0.001313  0.096393  0.089901  0.00067  0.994642  0.001
H  H66  1  0.70077107  0.95087275  0.71736827  1  0.044926  7.2e-05  0.091449  0.091906  2.2e-05  1.015794  0.0
H  H67  1  0.98382965  0.28244758  0.23363588  1  0.042314  7e-05  0.092014  0.092616  2.2e-05  1.015313  0.0
H  H68  1  0.75002338  0.76635507  0.04878789  1  0.041004  7e-05  0.091873  0.092809  2.3e-05  1.014915  0.0
H  H69  1  0.01617053  0.71755413  0.76636449  1  0.042452  7e-05  0.091995  0.092587  2.2e-05  1.015323  0.0
H  H70  1  0.24998106  0.23364356  0.95121205  1  0.041003  7e-05  0.091859  0.092788  2.3e-05  1.014928  0.0
H  H71  1  0.29923266  0.04912834  0.28263323  1  0.044846  7.2e-05  0.091443  0.091888  2.2e-05  1.015789  0.0
H  H72  1  0.82255804  0.90096381  0.61292269  1  0.094094  0.000864  0.101741  0.107365  0.000646  1.004447  0.0
H  H73  1  0.21000509  0.38683507  0.28796950  1  0.088443  0.000873  0.101304  0.107973  0.000651  1.003897  0.0
H  H74  1  0.92178467  0.71192477  0.09873316  1  0.083679  0.000872  0.100766  0.10649  0.000648  1.004082  0.0
H  H75  1  0.78999443  0.61316725  0.71203108  1  0.088327  0.000873  0.101314  0.108026  0.000651  1.00383  0.0
H  H76  1  0.07821910  0.28807448  0.90126909  1  0.083612  0.000872  0.10077  0.106478  0.000648  1.004031  0.0
H  H77  1  0.17744472  0.09903728  0.38707924  1  0.094128  0.000864  0.101725  0.107362  0.000646  1.0045  0.0
C  C78  1  0.58442590  0.23424932  0.63220032  1  0.462404  -0.001373  0.049016  0.100383  -0.001841  3.911324  -0.001
C  C79  1  0.95205940  0.36766421  0.60205051  1  0.433613  -0.001361  0.050281  0.101978  -0.001848  3.911863  -0.001
C  C80  1  0.35036016  0.39809645  0.76573197  1  0.396513  -0.001282  0.048221  0.099124  -0.00185  3.912602  -0.001
C  C81  1  0.04794600  0.63233443  0.39794849  1  0.433507  -0.001361  0.050294  0.101993  -0.001848  3.911788  -0.001
C  C82  1  0.64963525  0.60190342  0.23426604  1  0.396608  -0.001282  0.048236  0.099117  -0.00185  3.91255  -0.001
C  C83  1  0.41556950  0.76575055  0.36779821  1  0.461854  -0.001374  0.048862  0.100189  -0.001841  3.911418  -0.001
C  C84  1  0.48290623  0.15968779  0.58646462  1  -0.034582  0.004989  -0.077936  -0.15354  0.003315  3.915641  0.004
C  C85  1  0.89621927  0.41337239  0.57320639  1  0.039185  0.004932  -0.078897  -0.156575  0.003316  3.918059  0.004
C  C86  1  0.32294714  0.42686076  0.84016799  1  0.044134  0.004911  -0.077747  -0.152899  0.003311  3.917301  0.004
C  C87  1  0.10378644  0.58662686  0.42679396  1  0.039313  0.004932  -0.078871  -0.156486  0.003316  3.918113  0.004
C  C88  1  0.67704893  0.57313850  0.15982982  1  0.044266  0.004911  -0.077796  -0.152932  0.003311  3.917312  0.004
C  C89  1  0.51709080  0.84031146  0.41353223  1  -0.034139  0.004989  -0.077902  -0.15354  0.003315  3.91555  0.004
C  C90  1  0.47642252  0.10026663  0.61041908  1  0.043202  -0.003537  0.013261  0.105837  -0.003973  3.978501  -0.002
C  C91  1  0.86603167  0.38946434  0.48985685  1  -0.046421  -0.00356  0.01301  0.107735  -0.003982  3.981891  -0.002
C  C92  1  0.37595656  0.51020346  0.89964660  1  -0.045247  -0.003543  0.015265  0.106286  -0.003967  3.979629  -0.002
C  C93  1  0.13397048  0.61053553  0.51014341  1  -0.046384  -0.00356  0.012994  0.107668  -0.003982  3.981891  -0.002
C  C94  1  0.62404143  0.48979580  0.10035297  1  -0.045212  -0.003543  0.015297  0.106387  -0.003967  3.979612  -0.002
C  C95  1  0.52357517  0.89973201  0.38957810  1  0.043221  -0.003537  0.013258  0.105885  -0.003973  3.978514  -0.002
C  C96  1  0.57890575  0.11905843  0.68007016  1  -0.028611  0.004265  -0.08096  -0.17265  0.002816  3.941337  0.003
C  C97  1  0.89909098  0.31987064  0.43903239  1  -0.003884  0.004304  -0.080818  -0.173954  0.002821  3.943451  0.003
C  C98  1  0.46025165  0.56105550  0.88109966  1  -0.04368  0.004312  -0.078034  -0.171337  0.002819  3.941684  0.003
C  C99  1  0.10090955  0.68012984  0.56096590  1  -0.0038  0.004304  -0.08077  -0.173829  0.002821  3.943249  0.003
C  C100  1  0.53974472  0.43894437  0.11890106  1  -0.043718  0.004311  -0.078019  -0.1714  0.002818  3.941706  0.003
C  C101  1  0.42109356  0.88093960  0.31992638  1  -0.028503  0.004265  -0.08095  -0.172727  0.002817  3.941507  0.003
C  C102  1  0.67733907  0.19525609  0.72308089  1  0.4516  -0.001406  0.046336  0.090685  -0.001763  3.945466  -0.001
C  C103  1  0.95450742  0.27685918  0.47223636  1  0.461331  -0.001465  0.047996  0.092625  -0.001775  3.9411  -0.001
C  C104  1  0.48286783  0.52792889  0.80499728  1  0.512076  -0.001431  0.044816  0.089447  -0.001749  3.941886  -0.001
C  C105  1  0.04549250  0.72314007  0.52776079  1  0.461192  -0.001464  0.048059  0.092672  -0.001775  3.94116  -0.001
C  C106  1  0.51712853  0.47207097  0.19500239  1  0.512075  -0.00143  0.044783  0.089453  -0.001749  3.941873  -0.001
C  C107  1  0.32265861  0.80474255  0.27691681  1  0.451463  -0.001405  0.046366  0.090659  -0.001762  3.945626  -0.001
C  C108  1  0.26434238  0.87942246  0.51516975  1  0.531465  -8.8e-05  0.043835  0.100712  -6.3e-05  3.981956  0.0
C  C109  1  0.74947675  0.48466424  0.36416099  1  0.5039  -8.7e-05  0.042478  0.098206  -6.3e-05  3.979258  0.0
C  C110  1  0.38517673  0.63569334  0.12055280  1  0.511859  -9.2e-05  0.04445  0.101189  -6.5e-05  3.979376  0.0
C  C111  1  0.25052607  0.51533501  0.63583802  1  0.503963  -8.7e-05  0.042508  0.098149  -6.3e-05  3.97923  0.0
C  C112  1  0.61482573  0.36430714  0.87944725  1  0.511893  -9.2e-05  0.044491  0.101229  -6.5e-05  3.979314  0.0
C  C113  1  0.73565591  0.12057740  0.48483013  1  0.531501  -8.8e-05  0.043823  0.100686  -6.3e-05  3.982027  0.0
C  C114  1  0.37601134  0.94961869  0.55963655  1  -0.027441  -0.000555  -0.08676  -0.178533  -0.000612  3.951258  0.0
C  C115  1  0.81664895  0.44021056  0.38996852  1  -0.013965  -0.000556  -0.085605  -0.175669  -0.000614  3.949498  0.0
C  C116  1  0.42635670  0.60994570  0.05023434  1  -0.017126  -0.000552  -0.08759  -0.179054  -0.000612  3.94864  0.0
C  C117  1  0.18335224  0.55978930  0.61003164  1  -0.013922  -0.000556  -0.085671  -0.175752  -0.000614  3.94952  0.0
C  C118  1  0.57364484  0.39005294  0.94976583  1  -0.017189  -0.000552  -0.087572  -0.178997  -0.000612  3.948637  0.0
C  C119  1  0.62398665  0.05038056  0.44036250  1  -0.027031  -0.000555  -0.086685  -0.178407  -0.000612  3.951217  0.0
C  C120  1  0.36336809  0.02316249  0.56425610  1  -0.078828  0.000132  0.006687  0.093952  3.5e-05  3.981051  0.0
C  C121  1  0.79920926  0.43561050  0.45886310  1  -0.073021  0.000141  0.005767  0.090787  3.5e-05  3.985303  0.0
C  C122  1  0.33989378  0.54116990  0.97672330  1  -0.067367  0.000137  0.007477  0.093664  3.3e-05  3.980637  0.0
C  C123  1  0.20079254  0.56439059  0.54113821  1  -0.073082  0.000141  0.005751  0.090785  3.5e-05  3.98535  0.0
C  C124  1  0.66010680  0.45882874  0.02327678  1  -0.067388  0.000137  0.00744  0.093595  3.3e-05  3.980708  0.0
C  C125  1  0.63662990  0.97683676  0.43574137  1  -0.07938  0.000132  0.006666  0.093902  3.5e-05  3.981012  0.0
C  C126  1  0.23708050  0.02192369  0.52331908  1  -0.001092  -0.000489  -0.078114  -0.162069  -0.000492  3.905933  0.0
C  C127  1  0.71374143  0.47654772  0.49848232  1  -0.013554  -0.000494  -0.075234  -0.159179  -0.000497  3.904484  0.0
C  C128  1  0.21475939  0.50164444  0.97805773  1  0.022843  -0.000487  -0.078453  -0.163126  -0.000494  3.910343  0.0
C  C129  1  0.28626037  0.52345337  0.50151846  1  -0.013552  -0.000494  -0.075252  -0.159202  -0.000497  3.904434  0.0
C  C130  1  0.78524017  0.49835604  0.02194411  1  0.022171  -0.000487  -0.078382  -0.163038  -0.000493  3.910416  0.0
C  C131  1  0.76292104  0.97807494  0.47667849  1  -0.000951  -0.000488  -0.0781  -0.162028  -0.000492  3.905878  0.0
C  C132  1  0.13175824  0.94870486  0.48008704  1  0.44899  -0.000227  0.044942  0.09956  -0.000284  3.953066  0.0
C  C133  1  0.65178340  0.51980929  0.46846008  1  0.47668  -0.000222  0.043419  0.097539  -0.000283  3.956529  0.0
C  C134  1  0.18302663  0.53158607  0.05140883  1  0.434376  -0.000233  0.04508  0.100426  -0.000287  3.954489  0.0
C  C135  1  0.34821906  0.48019119  0.53153893  1  0.476734  -0.000222  0.043417  0.097531  -0.000283  3.956469  0.0
C  C136  1  0.81697420  0.46841502  0.94859290  1  0.434372  -0.000233  0.045093  0.100387  -0.000287  3.954471  0.0
C  C137  1  0.86824041  0.05129378  0.51991075  1  0.449146  -0.000227  0.04497  0.099585  -0.000283  3.95324  0.0
C  C138  1  0.75263955  0.75975232  0.47691698  1  1.477266  -0.002608  0.200515  0.578158  -0.002799  4.176611  -0.005
C  C139  1  0.27582160  0.52285790  0.28282925  1  1.476942  -0.002669  0.199585  0.577586  -0.002815  4.17527  -0.005
C  C140  1  0.99299803  0.71714207  0.23997373  1  1.47902  -0.002646  0.199286  0.577408  -0.002804  4.178951  -0.005
C  C141  1  0.72417823  0.47714503  0.71717164  1  1.476894  -0.002668  0.19957  0.577597  -0.002815  4.175416  -0.005
C  C142  1  0.00699904  0.28285534  0.76002439  1  1.478976  -0.002645  0.199242  0.577334  -0.002802  4.179037  -0.005
C  C143  1  0.24736418  0.24024877  0.52308452  1  1.47713  -0.002609  0.200617  0.578342  -0.002799  4.176548  -0.005
C  C144  1  0.67787998  0.78134227  0.53774711  1  -0.034704  0.010278  -0.056471  -0.212435  0.006709  3.987272  0.009
C  C145  1  0.14034448  0.46199143  0.24351622  1  -0.058587  0.010351  -0.055259  -0.211147  0.006707  3.988195  0.009
C  C146  1  0.89663887  0.75635050  0.21835812  1  -0.032176  0.010311  -0.056628  -0.211981  0.006717  3.990417  0.009
C  C147  1  0.85965408  0.53801089  0.75648530  1  -0.058732  0.010353  -0.055241  -0.21119  0.006708  3.988335  0.009
C  C148  1  0.10336135  0.24364937  0.78164300  1  -0.0318  0.010313  -0.056632  -0.211956  0.006718  3.990329  0.009
C  C149  1  0.32212217  0.21865760  0.46225473  1  -0.034666  0.010276  -0.056461  -0.212524  0.006708  3.987392  0.009
C  C150  1  0.55410845  0.72605248  0.52656761  1  0.685333  0.001672  0.086214  0.333993  0.001584  4.102648  0.0
C  C151  1  0.02778238  0.47318393  0.19943231  1  0.69416  0.0016  0.086339  0.334824  0.001594  4.104955  0.0
C  C152  1  0.82814988  0.80047161  0.27366836  1  0.664502  0.001684  0.086619  0.33518  0.001589  4.105297  0.0
C  C153  1  0.97221521  0.52681839  0.80056964  1  0.693928  0.001599  0.086347  0.334911  0.001594  4.104895  0.0
C  C154  1  0.17185130  0.19952825  0.72633181  1  0.664164  0.001684  0.086629  0.335172  0.001587  4.105289  0.0
C  C155  1  0.44589370  0.27394739  0.47343527  1  0.685077  0.001673  0.086237  0.334126  0.001584  4.102555  0.0
C  C156  1  0.48628062  0.75656999  0.58691861  1  -0.04909  0.010782  -0.120145  -0.218483  0.00767  3.96403  0.009
C  C157  1  0.89969493  0.41275636  0.16951422  1  -0.059105  0.010855  -0.12077  -0.219606  0.007673  3.967298  0.009
C  C158  1  0.72980095  0.83028680  0.24313959  1  -0.075767  0.010842  -0.122463  -0.221956  0.007687  3.968839  0.009
C  C159  1  0.10030266  0.58724596  0.83048877  1  -0.059057  0.010856  -0.120766  -0.219571  0.007674  3.967231  0.009
C  C160  1  0.27020024  0.16971306  0.75686058  1  -0.075717  0.010846  -0.122441  -0.221952  0.007689  3.968919  0.009
C  C161  1  0.51372407  0.24343110  0.41308456  1  -0.049196  0.010781  -0.120178  -0.218546  0.00767  3.964008  0.009
C  C162  1  0.53729725  0.83543365  0.65357305  1  -0.081602  0.000318  -0.09963  -0.062599  -0.000325  4.088358  0.001
C  C163  1  0.88413093  0.34612895  0.18178148  1  -0.092936  0.000338  -0.098044  -0.059444  -0.000324  4.0877  0.001
C  C164  1  0.70194313  0.81803218  0.16425320  1  -0.068479  0.000303  -0.096813  -0.058758  -0.00033  4.086359  0.001
C  C165  1  0.11586762  0.65387337  0.81822109  1  -0.092995  0.000337  -0.098133  -0.059652  -0.000325  4.08766  0.001
C  C166  1  0.29805872  0.18196707  0.83574624  1  -0.068382  0.000301  -0.096808  -0.0587  -0.000331  4.086366  0.001
C  C167  1  0.46270424  0.16456683  0.34642847  1  -0.081851  0.000318  -0.099595  -0.062488  -0.000325  4.088227  0.001
C  C168  1  0.65975333  0.88895586  0.66454596  1  -0.041015  -0.000355  -0.127855  -0.157083  -0.000568  4.11092  0.0
C  C169  1  0.99560833  0.33518766  0.22438457  1  -0.032173  -0.000369  -0.129032  -0.160455  -0.000582  4.112651  0.0
C  C170  1  0.77091259  0.77547974  0.11072247  1  -0.034018  -0.000333  -0.129116  -0.160526  -0.000548  4.108307  0.0
C  C171  1  0.00439119  0.66481466  0.77561758  1  -0.032206  -0.000368  -0.128953  -0.160287  -0.000581  4.11248  0.0
C  C172  1  0.22909052  0.22452012  0.88927894  1  -0.033831  -0.000334  -0.12911  -0.160509  -0.000549  4.108153  0.0
C  C173  1  0.34024816  0.11104462  0.33545556  1  -0.040674  -0.000355  -0.12785  -0.157082  -0.000568  4.110959  0.0
C  C174  1  0.72797332  0.86112406  0.60691544  1  -0.110701  -0.000291  -0.0972  -0.080255  -0.000463  4.041987  0.0
C  C175  1  0.12139017  0.39280184  0.25412969  1  -0.096399  -0.00028  -0.096468  -0.079592  -0.000453  4.040224  0.0
C  C176  1  0.86699130  0.74572626  0.13857046  1  -0.09517  -0.000301  -0.095959  -0.078872  -0.000471  4.038099  0.0
C  C177  1  0.87860904  0.60719986  0.74587111  1  -0.096519  -0.000282  -0.096502  -0.0797  -0.000455  4.040171  0.0
C  C178  1  0.13301054  0.25427299  0.86143159  1  -0.095292  -0.0003  -0.095953  -0.078859  -0.000471  4.037965  0.0
C  C179  1  0.27203011  0.13887642  0.39308575  1  -0.110696  -0.000291  -0.097178  -0.080232  -0.000463  4.042077  0.0
N  N180  1  0.67971906  0.25266612  0.70038642  1  -1.209152  0.067384  -0.33896  -0.227381  0.04498  3.585031  0.059
N  N181  1  0.97936495  0.29951327  0.55230818  1  -1.212801  0.067501  -0.341896  -0.227341  0.045048  3.584322  0.059
N  N182  1  0.42763829  0.44788532  0.74748875  1  -1.226113  0.067435  -0.339893  -0.225347  0.045044  3.582088  0.059
N  N183  1  0.02063786  0.70048599  0.44769031  1  -1.212709  0.067501  -0.341938  -0.2274  0.045048  3.584299  0.059
N  N184  1  0.57235868  0.55211577  0.25251206  1  -1.226172  0.067435  -0.339881  -0.225349  0.045044  3.581991  0.059
N  N185  1  0.32027730  0.74733374  0.29961222  1  -1.209188  0.067385  -0.338851  -0.227115  0.044981  3.585023  0.059
N  N186  1  0.14401609  0.87843844  0.47601615  1  -1.217643  -0.002003  -0.326727  -0.261861  -0.001693  3.497205  0.0
N  N187  1  0.66824912  0.52385563  0.40227847  1  -1.199303  -0.002015  -0.325284  -0.259701  -0.001703  3.494051  0.0
N  N188  1  0.26588033  0.59762334  0.12167062  1  -1.232149  -0.002009  -0.328096  -0.261688  -0.001703  3.498806  0.0
N  N189  1  0.33175303  0.47614423  0.59772127  1  -1.199404  -0.002014  -0.325287  -0.259639  -0.001703  3.493985  0.0
N  N190  1  0.73412081  0.40237837  0.87833037  1  -1.232058  -0.002009  -0.328118  -0.261672  -0.001703  3.49878  0.0
N  N191  1  0.85598190  0.12156081  0.52398238  1  -1.217721  -0.002004  -0.326701  -0.261824  -0.001693  3.497188  0.0
O  O192  1  0.86468270  0.81212479  0.49294430  1  -1.116911  0.105086  -0.32115  -0.525638  0.067193  2.320775  0.094
O  O193  1  0.37183013  0.50680046  0.31915960  1  -1.114583  0.105533  -0.321227  -0.525696  0.06751  2.319792  0.094
O  O194  1  0.05280736  0.68081037  0.18765009  1  -1.116807  0.105182  -0.321294  -0.525872  0.067295  2.318022  0.094
O  O195  1  0.62817097  0.49320309  0.68084222  1  -1.114625  0.105534  -0.321197  -0.525666  0.067511  2.319742  0.094
O  O196  1  0.94718875  0.31918704  0.81234794  1  -1.116755  0.105181  -0.321252  -0.525849  0.067293  2.318102  0.094
O  O197  1  0.13532073  0.18787568  0.50705638  1  -1.11674  0.105093  -0.321187  -0.52573  0.067197  2.320819  0.094
O  O198  1  0.70881926  0.69172332  0.40848335  1  -1.137901  0.097798  -0.326953  -0.571113  0.061661  2.492525  0.091
O  O199  1  0.30038884  0.59134914  0.28332860  1  -1.121679  0.098041  -0.327602  -0.571529  0.06173  2.491143  0.092
O  O200  1  0.01709317  0.71675071  0.30801343  1  -1.124654  0.097954  -0.325689  -0.569946  0.061769  2.49137  0.091
O  O201  1  0.69960876  0.40865318  0.71667126  1  -1.121606  0.098047  -0.327594  -0.57154  0.061735  2.491172  0.092
O  O202  1  0.98290841  0.28324609  0.69198540  1  -1.124626  0.097947  -0.325715  -0.569946  0.061765  2.491419  0.091
O  O203  1  0.29118223  0.30827716  0.59151765  1  -1.137949  0.097795  -0.32699  -0.571159  0.061659  2.492472  0.091
O  O204  1  0.49756855  0.65037994  0.46570896  1  -1.107681  0.122879  -0.347286  -0.513641  0.077634  2.377249  0.11
O  O205  1  0.03203715  0.53414161  0.18476489  1  -1.10163  0.123012  -0.346292  -0.514034  0.07773  2.376395  0.11
O  O206  1  0.84728826  0.81532769  0.34935915  1  -1.102602  0.123039  -0.344761  -0.5123  0.077867  2.376749  0.111
O  O207  1  0.96795851  0.46586071  0.81523687  1  -1.101208  0.12301  -0.346334  -0.514107  0.077728  2.37632  0.11
O  O208  1  0.15271324  0.18467279  0.65064185  1  -1.102588  0.12304  -0.344765  -0.512279  0.077867  2.37675  0.111
O  O209  1  0.50243584  0.34962053  0.53429495  1  -1.107689  0.122882  -0.347284  -0.513723  0.077636  2.377164  0.11
