# generated using pymatgen
data_InH12C22O5
_symmetry_space_group_name_H-M   'P 1'
_cell_length_a   14.16323078
_cell_length_b   16.04331560
_cell_length_c   31.20123865
_cell_angle_alpha   89.96338061
_cell_angle_beta   89.02846301
_cell_angle_gamma   89.08047973
_symmetry_Int_Tables_number   1
_chemical_formula_structural   InH12C22O5
_chemical_formula_sum   'In8 H96 C176 O40'
_cell_volume   7087.77456841
_cell_formula_units_Z   8
loop_
 _symmetry_equiv_pos_site_id
 _symmetry_equiv_pos_as_xyz
  1  'x, y, z'
loop_
 _atom_site_type_symbol
 _atom_site_label
 _atom_site_symmetry_multiplicity
 _atom_site_fract_x
 _atom_site_fract_y
 _atom_site_fract_z
 _atom_site_occupancy
 _atom_site_pbe_bader_charge
 _atom_site_pbe_bader_spin_density
 _atom_site_pbe_cm5_charge
 _atom_site_pbe_ddec_charge
 _atom_site_pbe_ddec_spin_density
 _atom_site_pbe_ddec_sum_bond_order
 _atom_site_pbe_magmom
In  In0  1  0.86860597  0.99884926  0.25073700  1  1.946071  0  0.762143  1.516172  0  2.801743  0
In  In1  1  0.62697457  0.00463182  0.75114719  1  1.943648  0  0.762409  1.514245  0  2.811177  0
In  In2  1  0.87614177  0.00095974  0.75028957  1  1.939651  0  0.760644  1.510871  0  2.815485  0
In  In3  1  0.61861062  0.99611464  0.24984165  1  1.947161  0  0.762185  1.515905  0  2.826225  0
In  In4  1  0.36946524  0.99780198  0.25110022  1  1.941588  0  0.7608  1.512005  0  2.808407  0
In  In5  1  0.12521783  0.99539406  0.74927854  1  1.943164  0  0.761279  1.51212  0  2.80797  0
In  In6  1  0.37592441  0.99836126  0.74857174  1  1.947193  0  0.76475  1.522518  0  2.80416  0
In  In7  1  0.11956789  0.00032744  0.24808036  1  1.943908  0  0.763062  1.51819  0  2.802424  0
H  H8  1  0.73646378  0.04667010  0.30681388  1  0.611153  0  0.320363  0.401376  0  0.896896  0
H  H9  1  0.76146662  0.71312349  0.04099928  1  0.051025  0  0.101269  0.104943  0  1.012691  0
H  H10  1  0.73883138  0.50087143  0.14905960  1  0.040651  0  0.101987  0.109653  0  1.001929  0
H  H11  1  0.75359210  0.95578411  0.69417266  1  0.618711  0  0.320069  0.400629  0  0.898667  0
H  H12  1  0.76573864  0.71362346  0.96254701  1  0.08246  0  0.101219  0.105065  0  1.01494  0
H  H13  1  0.75400151  0.50282501  0.85363636  1  0.061809  0  0.101788  0.106409  0  1.008284  0
H  H14  1  0.73077891  0.29041636  0.96188575  1  0.071938  0  0.100979  0.104716  0  1.016256  0
H  H15  1  0.72694573  0.29024849  0.04039903  1  0.081211  0  0.100594  0.104154  0  1.011981  0
H  H16  1  0.99917956  0.04842113  0.80574799  1  0.621698  0  0.32068  0.401035  0  0.897676  0
H  H17  1  0.01280415  0.71120427  0.53867519  1  0.068563  0  0.100988  0.104725  0  1.01426  0
H  H18  1  0.00275120  0.49832146  0.64673525  1  0.050507  0  0.10175  0.107605  0  1.006516  0
H  H19  1  0.99045761  0.05137864  0.19303434  1  0.607498  0  0.321386  0.402109  0  0.894694  0
H  H20  1  0.01081111  0.71208734  0.46022008  1  0.099099  0  0.100649  0.10357  0  1.016733  0
H  H21  1  0.99093025  0.50175662  0.35149450  1  0.061777  0  0.101963  0.107904  0  1.006357  0
H  H22  1  0.97675614  0.28891627  0.45965779  1  0.072074  0  0.100994  0.104272  0  1.01546  0
H  H23  1  0.98072245  0.28792984  0.53804274  1  0.091117  0  0.100607  0.103998  0  1.014822  0
H  H24  1  0.87016755  0.71073435  0.41062741  1  0.055143  0  0.105064  0.107721  0  0.992308  0
H  H25  1  0.87344950  0.83625441  0.36318024  1  0.086669  0  0.111484  0.117984  0  0.985174  0
H  H26  1  0.62555549  0.61323069  0.34670107  1  0.047936  0  0.102773  0.104923  0  0.994679  0
H  H27  1  0.62596210  0.74074811  0.30064985  1  0.086959  0  0.11109  0.116566  0  0.989069  0
H  H28  1  0.88588052  0.74769810  0.19274632  1  0.084231  0  0.11059  0.115806  0  0.990638  0
H  H29  1  0.62039557  0.83243476  0.14287106  1  0.089988  0  0.111966  0.119676  0  0.98676  0
H  H30  1  0.61531011  0.70663898  0.09555129  1  0.049225  0  0.104732  0.107906  0  0.992905  0
H  H31  1  0.87890695  0.61926391  0.14738558  1  0.046159  0  0.102321  0.104209  0  0.996476  0
H  H32  1  0.87730738  0.17835641  0.14303637  1  0.075553  0  0.105745  0.10854  0  0.996569  0
H  H33  1  0.87742794  0.30570167  0.09693672  1  0.100834  0  0.104548  0.107667  0  0.991179  0
H  H34  1  0.59884127  0.37120992  0.14441573  1  0.06802  0  0.10305  0.105972  0  0.994448  0
H  H35  1  0.59776176  0.24173461  0.18899913  1  0.095899  0  0.106968  0.112073  0  0.997834  0
H  H36  1  0.62655851  0.16757448  0.35961058  1  0.060126  0  0.105904  0.108724  0  0.995806  0
H  H37  1  0.86180246  0.38445438  0.34922737  1  0.049231  0  0.102101  0.103954  0  0.99669  0
H  H38  1  0.85748267  0.25571753  0.30433696  1  0.084432  0  0.106575  0.111736  0  0.994191  0
H  H39  1  0.62990850  0.29455307  0.40568360  1  0.064716  0  0.104333  0.107016  0  0.993016  0
H  H40  1  0.65191979  0.75555077  0.68877242  1  0.095969  0  0.106636  0.111935  0  0.99612  0
H  H41  1  0.86770587  0.82549600  0.64173293  1  0.085053  0  0.1063  0.109253  0  0.99659  0
H  H42  1  0.64900876  0.62667982  0.64389268  1  0.054585  0  0.101976  0.104546  0  0.996777  0
H  H43  1  0.86733674  0.69996407  0.59452072  1  0.084259  0  0.104218  0.107388  0  0.992975  0
H  H44  1  0.87222276  0.37942198  0.65081520  1  0.067041  0  0.10287  0.104768  0  0.996757  0
H  H45  1  0.87194999  0.25082559  0.69597391  1  0.097952  0  0.110409  0.117295  0  0.990236  0
H  H46  1  0.63527903  0.17722839  0.64645697  1  0.091263  0  0.112044  0.119745  0  0.986392  0
H  H47  1  0.64225681  0.30263444  0.59886394  1  0.09122  0  0.104363  0.107114  0  0.99171  0
H  H48  1  0.87393858  0.16762068  0.86491560  1  0.08666  0  0.106549  0.110006  0  0.994282  0
H  H49  1  0.87432699  0.29356824  0.91172110  1  0.07464  0  0.104673  0.107529  0  0.993228  0
H  H50  1  0.62182409  0.25794499  0.80467533  1  0.101616  0  0.11082  0.116855  0  0.989277  0
H  H51  1  0.62439784  0.38656415  0.84973685  1  0.052557  0  0.102847  0.105092  0  0.994999  0
H  H52  1  0.62376657  0.83497686  0.86608222  1  0.083598  0  0.106213  0.110108  0  0.994256  0
H  H53  1  0.88143403  0.75029057  0.80464821  1  0.122273  0  0.110551  0.117603  0  0.988845  0
H  H54  1  0.88045827  0.62167364  0.84979167  1  0.05004  0  0.102827  0.104459  0  0.995934  0
H  H55  1  0.62466366  0.70887360  0.91287692  1  0.088728  0  0.104336  0.108016  0  0.992325  0
H  H56  1  0.24003486  0.94786888  0.30531706  1  0.585321  0  0.321722  0.400869  0  0.89685  0
H  H57  1  0.27268429  0.71098106  0.03649689  1  0.072125  0  0.101455  0.104861  0  1.014184  0
H  H58  1  0.25582540  0.50184782  0.14658829  1  0.055205  0  0.101874  0.107347  0  1.006107  0
H  H59  1  0.24813517  0.04375305  0.69178178  1  0.615887  0  0.321552  0.402825  0  0.893921  0
H  H60  1  0.27150173  0.70899625  0.95809284  1  0.087063  0  0.100838  0.103957  0  1.01621  0
H  H61  1  0.24869787  0.49475084  0.85129354  1  0.05392  0  0.101837  0.106877  0  1.007993  0
H  H62  1  0.23912716  0.28575514  0.96133390  1  0.069097  0  0.100618  0.103575  0  1.015791  0
H  H63  1  0.24194924  0.28765904  0.03976386  1  0.091624  0  0.100246  0.103737  0  1.014402  0
H  H64  1  0.50103152  0.95038904  0.80575371  1  0.604114  0  0.322117  0.402873  0  0.893988  0
H  H65  1  0.52356768  0.71245808  0.53697885  1  0.056426  0  0.100839  0.104239  0  1.013464  0
H  H66  1  0.51215816  0.50452634  0.64778633  1  0.021446  0  0.102019  0.11012  0  1.001705  0
H  H67  1  0.49274733  0.05156918  0.19510712  1  0.600998  0  0.319942  0.40028  0  0.899031  0
H  H68  1  0.51812462  0.70979611  0.45861510  1  0.080758  0  0.100799  0.104045  0  1.015324  0
H  H69  1  0.49306501  0.49426284  0.35267772  1  0.031635  0  0.101796  0.108874  0  1.004465  0
H  H70  1  0.48999306  0.28625162  0.46329404  1  0.051525  0  0.100969  0.104096  0  1.014626  0
H  H71  1  0.49469807  0.28900224  0.54178122  1  0.06152  0  0.101107  0.105504  0  1.01284  0
H  H72  1  0.37171043  0.70248323  0.41057215  1  0.071637  0  0.104373  0.107144  0  0.992448  0
H  H73  1  0.37008707  0.82750847  0.36288015  1  0.080204  0  0.106624  0.110264  0  0.995014  0
H  H74  1  0.12249368  0.61588608  0.34756901  1  0.070059  0  0.102591  0.104539  0  0.996436  0
H  H75  1  0.12823330  0.74398117  0.30206867  1  0.094081  0  0.108357  0.113462  0  0.993994  0
H  H76  1  0.38442530  0.74796437  0.19388718  1  0.112108  0  0.10964  0.116541  0  0.991173  0
H  H77  1  0.12707675  0.83272545  0.13617060  1  0.108324  0  0.110536  0.117436  0  0.98752  0
H  H78  1  0.12923754  0.70726985  0.08868977  1  0.072239  0  0.103843  0.1069  0  0.994747  0
H  H79  1  0.38436695  0.61990277  0.14840438  1  0.045745  0  0.101541  0.1034  0  0.99872  0
H  H80  1  0.38236743  0.17173763  0.14073659  1  0.099637  0  0.106549  0.10866  0  0.99629  0
H  H81  1  0.38736755  0.29732196  0.09356595  1  0.077643  0  0.104757  0.10787  0  0.991748  0
H  H82  1  0.11879983  0.38001992  0.14613041  1  0.0753  0  0.103414  0.106026  0  0.99424  0
H  H83  1  0.11215477  0.25180676  0.19154687  1  0.096823  0  0.107973  0.112224  0  0.995423  0
H  H84  1  0.11561906  0.16800128  0.36027490  1  0.093615  0  0.111332  0.119091  0  0.985208  0
H  H85  1  0.35822772  0.37114622  0.35822620  1  0.069893  0  0.102839  0.105315  0  0.995799  0
H  H86  1  0.35363452  0.24172427  0.31369803  1  0.069641  0  0.110525  0.117682  0  0.988889  0
H  H87  1  0.11734272  0.29393217  0.40740085  1  0.053638  0  0.104198  0.106515  0  0.993825  0
H  H88  1  0.13821373  0.75057692  0.69005097  1  0.112179  0  0.111132  0.117159  0  0.989928  0
H  H89  1  0.38238366  0.83196315  0.63994750  1  0.071985  0  0.111073  0.118411  0  0.986591  0
H  H90  1  0.13660537  0.62261658  0.64439415  1  0.042233  0  0.102604  0.104901  0  0.994458  0
H  H91  1  0.38115224  0.70551718  0.59313473  1  0.055104  0  0.1042  0.107074  0  0.99288  0
H  H92  1  0.36518549  0.37905693  0.64397403  1  0.051875  0  0.102449  0.10522  0  0.99456  0
H  H93  1  0.35660382  0.25094833  0.68948538  1  0.092574  0  0.107318  0.112029  0  0.994751  0
H  H94  1  0.12883624  0.16627802  0.63385342  1  0.073826  0  0.10553  0.108338  0  0.994064  0
H  H95  1  0.12724634  0.29238567  0.58706678  1  0.074122  0  0.103846  0.10785  0  0.991869  0
H  H96  1  0.37289127  0.16252381  0.85974913  1  0.104525  0  0.111354  0.119077  0  0.986537  0
H  H97  1  0.37758210  0.28870228  0.90658069  1  0.069366  0  0.104283  0.106915  0  0.99292  0
H  H98  1  0.11032846  0.24896993  0.80757962  1  0.092001  0  0.106843  0.112535  0  0.994782  0
H  H99  1  0.11681563  0.37742730  0.85245939  1  0.080082  0  0.102257  0.104849  0  0.997238  0
H  H100  1  0.13112979  0.83052752  0.86164229  1  0.092319  0  0.11151  0.118649  0  0.984927  0
H  H101  1  0.38332475  0.73672772  0.79889467  1  0.104828  0  0.108095  0.112908  0  0.993677  0
H  H102  1  0.37856180  0.60909910  0.84470480  1  0.065937  0  0.10266  0.105175  0  0.996481  0
H  H103  1  0.12938814  0.70585200  0.90963879  1  0.070457  0  0.105058  0.107629  0  0.992306  0
C  C104  1  0.75594712  0.87203505  0.19840321  1  1.562518  0  0.241646  0.609507  0  4.170504  0
C  C105  1  0.75520325  0.65476161  0.02350631  1  -0.060234  0  -0.093546  -0.128611  0  4.026258  0
C  C106  1  0.74430582  0.50182391  0.02419340  1  -0.09718  0  0.002809  0.009944  0  3.910717  0
C  C107  1  0.74334737  0.57748644  0.09264346  1  -0.007574  0  -0.006944  0.023733  0  3.997411  0
C  C108  1  0.74612950  0.57891683  0.04725495  1  0.020749  0  -0.006382  0.029799  0  4.001479  0
C  C109  1  0.74026923  0.50105710  0.11407932  1  -0.019621  0  -0.092253  -0.188945  0  4.009732  0
C  C110  1  0.82668927  0.73739148  0.17161653  1  -0.04766  0  -0.079534  -0.080294  0  3.98098  0
C  C111  1  0.82246535  0.66624922  0.14632667  1  -0.010699  0  -0.091877  -0.141239  0  3.989761  0
C  C112  1  0.67451837  0.71558855  0.11690361  1  -0.013548  0  -0.09046  -0.142971  0  3.992009  0
C  C113  1  0.67716050  0.78573968  0.14301465  1  -0.019171  0  -0.07859  -0.080304  0  3.971375  0
C  C114  1  0.75311251  0.87509887  0.80416617  1  1.558417  0  0.238035  0.612388  0  4.170053  0
C  C115  1  0.75743993  0.65501145  0.97974972  1  -0.003651  0  -0.094907  -0.133561  0  4.029739  0
C  C116  1  0.74695990  0.50198691  0.97833091  1  0.044876  0  0.002999  0.008665  0  3.906073  0
C  C117  1  0.75166258  0.57892075  0.91020410  1  0.025812  0  -0.005954  0.023602  0  3.991262  0
C  C118  1  0.75079392  0.57955213  0.95563290  1  -0.081354  0  -0.00663  0.03152  0  3.99453  0
C  C119  1  0.75217022  0.50260202  0.88860742  1  -0.029205  0  -0.092378  -0.186533  0  4.005288  0
C  C120  1  0.74670747  0.13018400  0.80384236  1  1.554327  0  0.242145  0.615349  0  4.161322  0
C  C121  1  0.73685315  0.34891319  0.97924483  1  -0.039326  0  -0.095147  -0.132776  0  4.0286  0
C  C122  1  0.74992131  0.42598910  0.90992786  1  0.004677  0  -0.007031  0.021912  0  3.992865  0
C  C123  1  0.74583171  0.42466834  0.95536905  1  -0.060022  0  -0.006615  0.030971  0  3.995468  0
C  C124  1  0.74779452  0.20533870  0.83198469  1  -0.00297  0  -0.018574  -0.04365  0  3.979005  0
C  C125  1  0.74925744  0.34880586  0.88392125  1  -0.037729  0  -0.000682  0.086283  0  3.996694  0
C  C126  1  0.75243844  0.79997704  0.83243869  1  -0.030782  0  -0.01981  -0.043305  0  3.975766  0
C  C127  1  0.82505284  0.73992951  0.82816361  1  -0.037965  0  -0.080199  -0.081198  0  3.973989  0
C  C128  1  0.82425783  0.66854345  0.85345934  1  -0.034074  0  -0.091261  -0.139279  0  3.986377  0
C  C129  1  0.75259187  0.65648593  0.88446895  1  -0.048917  0  -0.001648  0.084776  0  3.996432  0
C  C130  1  0.68101155  0.71782831  0.88913415  1  -0.040566  0  -0.089832  -0.140335  0  3.986744  0
C  C131  1  0.68019450  0.78823774  0.86302334  1  -0.039484  0  -0.083118  -0.086882  0  3.987704  0
C  C132  1  0.73666166  0.12686275  0.19680634  1  1.55905  0  0.236778  0.617943  0  4.164126  0
C  C133  1  0.73451747  0.34876079  0.02301270  1  -0.065351  0  -0.094893  -0.130688  0  4.029286  0
C  C134  1  0.73962455  0.42505336  0.09233441  1  -0.012844  0  -0.007858  0.021122  0  4.000366  0
C  C135  1  0.74052594  0.42440262  0.04696723  1  0.007516  0  -0.007661  0.02838  0  4.006806  0
C  C136  1  0.73741483  0.20241464  0.16875612  1  0.000856  0  -0.020927  -0.047284  0  3.97801  0
C  C137  1  0.65882214  0.25667312  0.16887043  1  -0.049711  0  -0.083208  -0.084144  0  3.987128  0
C  C138  1  0.65971610  0.32865196  0.14397467  1  -0.000884  0  -0.091678  -0.140648  0  3.987741  0
C  C139  1  0.73816935  0.34696477  0.11772564  1  -0.056582  0  -0.000379  0.086734  0  4.001656  0
C  C140  1  0.81611855  0.29158836  0.11716020  1  -0.083718  0  -0.089496  -0.139929  0  3.986624  0
C  C141  1  0.81623508  0.22054235  0.14279319  1  -0.051682  0  -0.083408  -0.084043  0  3.986682  0
C  C142  1  0.75352069  0.79713154  0.17032559  1  -0.009777  0  -0.018831  -0.047061  0  3.986878  0
C  C143  1  0.74671904  0.65460612  0.11854203  1  -0.060472  0  -0.001127  0.084757  0  4.005155  0
C  C144  1  0.67728144  0.26702419  0.82793923  1  -0.071986  0  -0.08025  -0.083029  0  3.979754  0
C  C145  1  0.67896952  0.33839548  0.85318098  1  -0.000169  0  -0.090795  -0.139266  0  3.985735  0
C  C146  1  0.81893024  0.28598495  0.88822794  1  -0.03504  0  -0.090665  -0.141067  0  3.988897  0
C  C147  1  0.81901733  0.21561316  0.86213119  1  -0.049757  0  -0.082548  -0.086667  0  3.986533  0
C  C148  1  0.00368584  0.87014706  0.69719604  1  1.55244  0  0.242253  0.613799  0  4.163263  0
C  C149  1  0.00582466  0.65284310  0.52125135  1  -0.04105  0  -0.09435  -0.131587  0  4.029448  0
C  C150  1  0.99675398  0.49968976  0.52202357  1  -0.044466  0  0.0021  0.006665  0  3.908991  0
C  C151  1  0.00045987  0.57528557  0.59045994  1  -0.030809  0  -0.007592  0.021803  0  3.992833  0
C  C152  1  0.99972105  0.57682048  0.54505764  1  -0.029207  0  -0.006648  0.031482  0  3.999941  0
C  C153  1  0.00107302  0.49866992  0.61178686  1  -0.024171  0  -0.091935  -0.187108  0  4.006642  0
C  C154  1  0.00301013  0.79539172  0.66874438  1  0.019447  0  -0.019273  -0.044673  0  3.97771  0
C  C155  1  0.59275533  0.74358102  0.66786522  1  -0.052932  0  -0.084318  -0.086175  0  3.987625  0
C  C156  1  0.59071155  0.67186947  0.64285447  1  -0.044827  0  -0.092584  -0.142001  0  3.990038  0
C  C157  1  0.51473709  0.65729522  0.61559291  1  0.023312  0  -0.00078  0.085056  0  3.998513  0
C  C158  1  0.92677528  0.71098768  0.61547786  1  -0.04758  0  -0.090424  -0.141522  0  3.988215  0
C  C159  1  0.92675599  0.78107826  0.64176043  1  -0.060329  0  -0.081963  -0.084604  0  3.985605  0
C  C160  1  0.00402628  0.87279474  0.30196382  1  1.572514  0  0.241235  0.614301  0  4.165806  0
C  C161  1  0.00451185  0.65335950  0.47750308  1  -0.042869  0  -0.094415  -0.13001  0  4.027203  0
C  C162  1  0.99480569  0.50025341  0.47617530  1  0.031363  0  0.002874  0.007521  0  3.909285  0
C  C163  1  0.99390124  0.57742503  0.40810282  1  0.014047  0  -0.00674  0.022673  0  3.99387  0
C  C164  1  0.99638149  0.57794805  0.45349444  1  -0.092231  0  -0.006661  0.030963  0  3.998802  0
C  C165  1  0.99186053  0.50127924  0.38645302  1  -0.038256  0  -0.092346  -0.187843  0  4.007685  0
C  C166  1  0.99628606  0.65480862  0.38227674  1  -0.049015  0  -0.001244  0.086137  0  3.997594  0
C  C167  1  0.98316676  0.12803204  0.30243006  1  1.583892  0  0.236159  0.610411  0  4.174734  0
C  C168  1  0.98484633  0.34719748  0.47701182  1  -0.042566  0  -0.094469  -0.131024  0  4.029041  0
C  C169  1  0.99129332  0.42460339  0.40771155  1  -0.014136  0  -0.006482  0.024091  0  3.994232  0
C  C170  1  0.99156758  0.42311446  0.45314453  1  -0.022717  0  -0.006529  0.03089  0  3.998804  0
C  C171  1  0.00152596  0.79777596  0.33016470  1  0.009322  0  -0.019744  -0.046531  0  3.984638  0
C  C172  1  0.57001395  0.73102657  0.32445661  1  -0.057988  0  -0.079126  -0.08019  0  3.975818  0
C  C173  1  0.56947378  0.66023862  0.35021556  1  0.037761  0  -0.090536  -0.139596  0  3.98499  0
C  C174  1  0.92684195  0.71797855  0.38686399  1  -0.014554  0  -0.089208  -0.139958  0  3.986763  0
C  C175  1  0.92851157  0.78815524  0.36060680  1  -0.023677  0  -0.078666  -0.080658  0  3.969442  0
C  C176  1  0.99944311  0.12578054  0.69607155  1  1.569323  0  0.237413  0.611537  0  4.172167  0
C  C177  1  0.98697227  0.34665963  0.52074986  1  -0.039837  0  -0.094648  -0.131146  0  4.029152  0
C  C178  1  0.99947212  0.42245375  0.59010911  1  -0.002721  0  -0.006624  0.022293  0  3.990814  0
C  C179  1  0.99581239  0.42203200  0.54473524  1  -0.03695  0  -0.006396  0.032172  0  3.997172  0
C  C180  1  0.49522859  0.20647095  0.67043642  1  -0.035755  0  -0.020421  -0.04837  0  3.984084  0
C  C181  1  0.92806608  0.26125753  0.67234219  1  -0.029265  0  -0.080756  -0.081598  0  3.97745  0
C  C182  1  0.92848907  0.33263617  0.64704380  1  -0.07448  0  -0.091839  -0.140507  0  3.990207  0
C  C183  1  0.99971305  0.34479105  0.61583778  1  0.012819  0  -0.001744  0.084653  0  3.998748  0
C  C184  1  0.57973917  0.29148366  0.61884397  1  -0.069185  0  -0.089249  -0.139989  0  3.986494  0
C  C185  1  0.57599824  0.22131885  0.64509004  1  0.011005  0  -0.079191  -0.082096  0  3.969605  0
C  C186  1  0.48992345  0.19725744  0.33382396  1  -0.018553  0  -0.019735  -0.044215  0  3.97468  0
C  C187  1  0.91437630  0.26516228  0.32683390  1  0.025673  0  -0.084081  -0.087152  0  3.988501  0
C  C188  1  0.91706755  0.33669377  0.35193604  1  -0.058001  0  -0.092776  -0.139447  0  3.990728  0
C  C189  1  0.98936218  0.34758514  0.38164480  1  -0.041117  0  -0.002167  0.082162  0  4.001437  0
C  C190  1  0.56929246  0.28300823  0.38552199  1  -0.032129  0  -0.090547  -0.14129  0  3.988894  0
C  C191  1  0.56762715  0.21209869  0.35987381  1  0.007856  0  -0.082875  -0.083904  0  3.983812  0
C  C192  1  0.25539608  0.87282222  0.19612954  1  1.565409  0  0.237243  0.607677  0  4.178038  0
C  C193  1  0.26527205  0.65203863  0.01964926  1  -0.116032  0  -0.094375  -0.130658  0  4.028124  0
C  C194  1  0.25587349  0.49906438  0.02181901  1  0.022791  0  0.002584  0.007333  0  3.907472  0
C  C195  1  0.25678130  0.57718190  0.08966855  1  0.036434  0  -0.006282  0.024197  0  3.985284  0
C  C196  1  0.25798871  0.57701182  0.04421139  1  -0.109884  0  -0.006235  0.030987  0  3.995916  0
C  C197  1  0.25631130  0.50114506  0.11161677  1  -0.027872  0  -0.092754  -0.187541  0  4.007061  0
C  C198  1  0.32842574  0.73782530  0.17101686  1  -0.024664  0  -0.08167  -0.0834  0  3.979973  0
C  C199  1  0.32816232  0.66676177  0.14550793  1  -0.040394  0  -0.092862  -0.142151  0  3.992248  0
C  C200  1  0.18529358  0.71610416  0.11173039  1  -0.096909  0  -0.090613  -0.143338  0  3.990756  0
C  C201  1  0.18383912  0.78620798  0.13807817  1  -0.023021  0  -0.080397  -0.082073  0  3.972843  0
C  C202  1  0.26063390  0.86697950  0.79991245  1  1.563679  0  0.241458  0.614482  0  4.161309  0
C  C203  1  0.26456415  0.65090122  0.97588481  1  -0.035732  0  -0.094319  -0.130684  0  4.027508  0
C  C204  1  0.25467017  0.49787110  0.97593850  1  -0.026229  0  0.003194  0.009877  0  3.905777  0
C  C205  1  0.25294020  0.57255111  0.90711747  1  -0.016869  0  -0.006418  0.024043  0  3.990643  0
C  C206  1  0.25605809  0.57472553  0.95251582  1  0.088525  0  -0.007229  0.029455  0  3.997511  0
C  C207  1  0.25061555  0.49555518  0.88623486  1  -0.017025  0  -0.092637  -0.187802  0  4.008323  0
C  C208  1  0.23789294  0.12247401  0.80330410  1  1.555454  0  0.236935  0.611566  0  4.174526  0
C  C209  1  0.24594054  0.34474480  0.97818919  1  -0.117144  0  -0.094621  -0.130656  0  4.030032  0
C  C210  1  0.25064847  0.41964085  0.90821004  1  -0.024956  0  -0.005995  0.023559  0  3.990054  0
C  C211  1  0.25173021  0.41987034  0.95364044  1  -0.083317  0  -0.006702  0.030785  0  3.997515  0
C  C212  1  0.24086970  0.19785960  0.83128446  1  0.004895  0  -0.020569  -0.044084  0  3.976481  0
C  C213  1  0.24724894  0.34170539  0.88280494  1  -0.007857  0  -0.000617  0.086087  0  3.994081  0
C  C214  1  0.25804961  0.79148328  0.82785295  1  -0.030885  0  -0.018863  -0.043903  0  3.981483  0
C  C215  1  0.32769218  0.72894939  0.82306140  1  -0.080262  0  -0.084086  -0.088141  0  3.990585  0
C  C216  1  0.32479546  0.65804353  0.84870052  1  -0.053221  0  -0.092149  -0.140172  0  3.988742  0
C  C217  1  0.25428211  0.64908609  0.88057072  1  -0.02914  0  -0.000798  0.084843  0  3.996733  0
C  C218  1  0.18511790  0.71249370  0.88536379  1  -0.028884  0  -0.090167  -0.139371  0  3.986265  0
C  C219  1  0.18595605  0.78226475  0.85880114  1  -0.002784  0  -0.07955  -0.084395  0  3.973156  0
C  C220  1  0.24268984  0.12891412  0.19696970  1  1.565192  0  0.241274  0.619913  0  4.158636  0
C  C221  1  0.24743788  0.34584211  0.02192404  1  -0.030254  0  -0.095119  -0.131418  0  4.029648  0
C  C222  1  0.25589251  0.42434072  0.09057753  1  -0.035012  0  -0.007939  0.02116  0  3.996845  0
C  C223  1  0.25450459  0.42221551  0.04520147  1  0.039619  0  -0.007567  0.029215  0  4.003538  0
C  C224  1  0.24672780  0.20412836  0.16884922  1  0.007156  0  -0.0196  -0.047603  0  3.982322  0
C  C225  1  0.17236333  0.26282417  0.17019255  1  -0.070387  0  -0.08271  -0.084527  0  3.98783  0
C  C226  1  0.17639187  0.33407528  0.14485154  1  -0.062939  0  -0.091124  -0.139089  0  3.985792  0
C  C227  1  0.25332451  0.34726303  0.11677119  1  -0.003654  0  0.00038  0.087559  0  3.996987  0
C  C228  1  0.32709247  0.28754837  0.11513147  1  -0.054452  0  -0.089114  -0.13988  0  3.984595  0
C  C229  1  0.32447729  0.21733101  0.14136145  1  -0.070412  0  -0.082395  -0.083887  0  3.983972  0
C  C230  1  0.25573628  0.79776396  0.16776143  1  -0.065389  0  -0.018309  -0.040836  0  3.971464  0
C  C231  1  0.25701609  0.65490939  0.11530253  1  0.035048  0  -0.002156  0.084291  0  3.998074  0
C  C232  1  0.16867554  0.25849843  0.82929903  1  -0.1102  0  -0.083984  -0.087462  0  3.988033  0
C  C233  1  0.17266207  0.33002131  0.85435526  1  0.021792  0  -0.092741  -0.14106  0  3.990514  0
C  C234  1  0.31873011  0.27996705  0.88501281  1  -0.055448  0  -0.089746  -0.140549  0  3.985112  0
C  C235  1  0.31636303  0.20942400  0.85908416  1  -0.058386  0  -0.079811  -0.081835  0  3.971481  0
C  C236  1  0.51828573  0.87675596  0.69496915  1  1.554251  0  0.236869  0.612269  0  4.172544  0
C  C237  1  0.51594817  0.65330103  0.52035272  1  0.011734  0  -0.094586  -0.130675  0  4.029193  0
C  C238  1  0.50686170  0.50029273  0.52306435  1  0.056355  0  0.002474  0.0098  0  3.909248  0
C  C239  1  0.51205067  0.57894091  0.59053424  1  0.011875  0  -0.007432  0.024586  0  3.990684  0
C  C240  1  0.51050403  0.57841245  0.54515134  1  -0.015199  0  -0.007273  0.02758  0  4.00248  0
C  C241  1  0.51118769  0.50330447  0.61283746  1  0.008094  0  -0.092312  -0.189667  0  4.00584  0
C  C242  1  0.51752352  0.80137191  0.66690236  1  -0.023248  0  -0.020976  -0.046781  0  3.978948  0
C  C243  1  0.07897857  0.73829315  0.66924859  1  -0.026864  0  -0.079471  -0.081383  0  3.976421  0
C  C244  1  0.07773031  0.66726008  0.64371817  1  -0.072116  0  -0.090502  -0.13918  0  3.985197  0
C  C245  1  0.00188529  0.65263259  0.61638996  1  -0.022024  0  -0.000602  0.085506  0  3.998228  0
C  C246  1  0.44049035  0.71645684  0.61415066  1  -0.0703  0  -0.090148  -0.141545  0  3.987386  0
C  C247  1  0.44106912  0.78716084  0.63999326  1  0.012704  0  -0.079799  -0.080393  0  3.970678  0
C  C248  1  0.49804939  0.86675840  0.30092128  1  1.551772  0  0.242037  0.614567  0  4.162291  0
C  C249  1  0.51282440  0.65183157  0.47664700  1  -0.087171  0  -0.094869  -0.130972  0  4.027154  0
C  C250  1  0.50371935  0.49870980  0.47725153  1  -0.074843  0  0.002839  0.009268  0  3.907616  0
C  C251  1  0.49908044  0.57266074  0.40828558  1  -0.030441  0  -0.006574  0.022893  0  3.9926  0
C  C252  1  0.50397258  0.57530628  0.45359932  1  -0.049639  0  -0.006684  0.029888  0  3.995769  0
C  C253  1  0.49624943  0.49552179  0.38758533  1  0.014269  0  -0.092184  -0.188854  0  4.007602  0
C  C254  1  0.49863543  0.64917528  0.38170958  1  -0.058466  0  -0.000702  0.086617  0  3.996462  0
C  C255  1  0.48781729  0.12220681  0.30558120  1  1.550358  0  0.237162  0.611573  0  4.173108  0
C  C256  1  0.49620617  0.34547733  0.47999412  1  0.033717  0  -0.094503  -0.129624  0  4.026957  0
C  C257  1  0.49747420  0.41995198  0.40987004  1  0.018368  0  -0.006988  0.022274  0  3.993763  0
C  C258  1  0.50025831  0.42050748  0.45523789  1  -8e-05  0  -0.006948  0.02983  0  3.999332  0
C  C259  1  0.49779938  0.79136515  0.32889813  1  -0.062388  0  -0.01898  -0.04523  0  3.979226  0
C  C260  1  0.07180201  0.73570047  0.32580185  1  -0.078471  0  -0.08394  -0.087894  0  3.991235  0
C  C261  1  0.06826523  0.66451829  0.35117954  1  -0.02625  0  -0.091704  -0.139453  0  3.989013  0
C  C262  1  0.42728011  0.71062446  0.38636023  1  -0.014701  0  -0.090042  -0.140353  0  3.990721  0
C  C263  1  0.42610364  0.78039109  0.35983925  1  -0.014059  0  -0.082273  -0.085676  0  3.986069  0
C  C264  1  0.49098538  0.13120097  0.69849917  1  1.562009  0  0.241622  0.616208  0  4.164786  0
C  C265  1  0.49872228  0.34701398  0.52371076  1  -0.048166  0  -0.094388  -0.132004  0  4.027803  0
C  C266  1  0.50812318  0.42633548  0.59204274  1  -0.046279  0  -0.00652  0.022936  0  3.994827  0
C  C267  1  0.50576199  0.42372895  0.54671102  1  -0.100044  0  -0.007315  0.029419  0  4.003501  0
C  C268  1  0.00053479  0.20113890  0.66786729  1  -0.007863  0  -0.019477  -0.041861  0  3.971874  0
C  C269  1  0.41902969  0.26324447  0.66970043  1  -0.044021  0  -0.082682  -0.08567  0  3.988174  0
C  C270  1  0.42415137  0.33449545  0.64434002  1  -0.067872  0  -0.091699  -0.140526  0  3.987225  0
C  C271  1  0.50418694  0.34936258  0.61840300  1  -0.006088  0  -0.001227  0.085096  0  4.000327  0
C  C272  1  0.07125948  0.28349519  0.61100778  1  -0.060248  0  -0.089985  -0.141502  0  3.986702  0
C  C273  1  0.07243368  0.21300657  0.63712332  1  -0.042197  0  -0.082693  -0.085345  0  3.98484  0
C  C274  1  0.98586961  0.20411552  0.32991156  1  -0.069507  0  -0.020019  -0.042649  0  3.978388  0
C  C275  1  0.41404454  0.25447255  0.33372159  1  -0.05521  0  -0.080706  -0.081633  0  3.974966  0
C  C276  1  0.41690065  0.32626549  0.35861085  1  -0.005214  0  -0.091342  -0.141023  0  3.987471  0
C  C277  1  0.49437322  0.34155232  0.38487666  1  -0.047097  0  -0.000428  0.086778  0  3.998619  0
C  C278  1  0.06031586  0.28559536  0.38479708  1  -0.030403  0  -0.089742  -0.139331  0  3.988195  0
C  C279  1  0.05955538  0.21523509  0.35871212  1  -0.019418  0  -0.080256  -0.083602  0  3.972728  0
O  O280  1  0.74151683  0.99825398  0.28803633  1  -1.193189  0  -0.520063  -0.862669  0  2.042871  0
O  O281  1  0.83104552  0.88324525  0.21965947  1  -1.165369  0  -0.282045  -0.557859  0  2.276314  0
O  O282  1  0.75236317  0.00468750  0.71270572  1  -1.195188  0  -0.519674  -0.858807  0  2.043928  0
O  O283  1  0.67827870  0.92064843  0.80304157  1  -1.184689  0  -0.295851  -0.599795  0  2.288662  0
O  O284  1  0.82182485  0.08520691  0.80135577  1  -1.182126  0  -0.292718  -0.590887  0  2.293896  0
O  O285  1  0.82933649  0.88776336  0.78295004  1  -1.17408  0  -0.286982  -0.575686  0  2.304725  0
O  O286  1  0.65819577  0.11073440  0.21566575  1  -1.180814  0  -0.294159  -0.594671  0  2.304364  0
O  O287  1  0.68299450  0.91959778  0.19919761  1  -1.173345  0  -0.288029  -0.578022  0  2.315366  0
O  O288  1  0.81333865  0.08473035  0.20008650  1  -1.187198  0  -0.29379  -0.597758  0  2.295321  0
O  O289  1  0.67022660  0.11685422  0.78409403  1  -1.165926  0  -0.281504  -0.55956  0  2.282471  0
O  O290  1  0.99997705  0.99853319  0.78790924  1  -1.198392  0  -0.519346  -0.858084  0  2.03965  0
O  O291  1  0.59535047  0.89127894  0.71432705  1  -1.178144  0  -0.295626  -0.596117  0  2.294643  0
O  O292  1  0.99391827  0.00297711  0.21182017  1  -1.189491  0  -0.5199  -0.864435  0  2.039722  0
O  O293  1  0.93017488  0.91880274  0.30064802  1  -1.184759  0  -0.285729  -0.573468  0  2.302539  0
O  O294  1  0.56285443  0.07711560  0.30255874  1  -1.183037  0  -0.29628  -0.602731  0  2.305142  0
O  O295  1  0.57325179  0.87977111  0.27895851  1  -1.161677  0  -0.281811  -0.560394  0  2.278231  0
O  O296  1  0.92316805  0.11387983  0.71743326  1  -1.172815  0  -0.287345  -0.57596  0  2.303916  0
O  O297  1  0.92876471  0.91541697  0.69949321  1  -1.18162  0  -0.291984  -0.589267  0  2.296658  0
O  O298  1  0.56720936  0.08957293  0.70326771  1  -1.179747  0  -0.284767  -0.572741  0  2.316053  0
O  O299  1  0.90384224  0.11275333  0.28512839  1  -1.17411  0  -0.296037  -0.594983  0  2.301172  0
O  O300  1  0.24108392  0.99771057  0.28745328  1  -1.16299  0  -0.519127  -0.859314  0  2.039463  0
O  O301  1  0.33027575  0.88441436  0.21750843  1  -1.168547  0  -0.288719  -0.577343  0  2.302803  0
O  O302  1  0.25136239  0.99654941  0.71138638  1  -1.196336  0  -0.519596  -0.863843  0  2.043021  0
O  O303  1  0.18540343  0.91099215  0.79755720  1  -1.183987  0  -0.28504  -0.571617  0  2.302327  0
O  O304  1  0.31219463  0.07709366  0.80026739  1  -1.177049  0  -0.289212  -0.584392  0  2.308812  0
O  O305  1  0.33900654  0.88176634  0.78046713  1  -1.173443  0  -0.290709  -0.581051  0  2.276573  0
O  O306  1  0.16279215  0.11351052  0.21473316  1  -1.173028  0  -0.289125  -0.579686  0  2.286588  0
O  O307  1  0.18156307  0.91938916  0.19696330  1  -1.178927  0  -0.291228  -0.58636  0  2.294091  0
O  O308  1  0.31831371  0.08591814  0.20139908  1  -1.188201  0  -0.289146  -0.586777  0  2.299294  0
O  O309  1  0.15992745  0.10937846  0.78434368  1  -1.178848  0  -0.295383  -0.595545  0  2.297413  0
O  O310  1  0.49856259  0.99907555  0.78710169  1  -1.184516  0  -0.51962  -0.863119  0  2.044158  0
O  O311  1  0.07970024  0.88302900  0.71735635  1  -1.165812  0  -0.282279  -0.559886  0  2.289908  0
O  O312  1  0.49468514  0.00118642  0.21252700  1  -1.181596  0  -0.520208  -0.860856  0  2.048382  0
O  O313  1  0.42361471  0.91280503  0.30089056  1  -1.186964  0  -0.292478  -0.590453  0  2.294561  0
O  O314  1  0.05860248  0.08449797  0.29837391  1  -1.18647  0  -0.288196  -0.581469  0  2.304458  0
O  O315  1  0.08110845  0.88533806  0.28101694  1  -1.175639  0  -0.290576  -0.582267  0  2.285916  0
O  O316  1  0.41068827  0.11421888  0.71560218  1  -1.176652  0  -0.290526  -0.581085  0  2.278907  0
O  O317  1  0.44279036  0.92070959  0.69760192  1  -1.185734  0  -0.289881  -0.585051  0  2.308912  0
O  O318  1  0.07352507  0.07933128  0.69698742  1  -1.192201  0  -0.296147  -0.600486  0  2.287472  0
O  O319  1  0.41068245  0.10920689  0.28631422  1  -1.17076  0  -0.285775  -0.571611  0  2.298276  0
