# generated using pymatgen
data_Al3H24C48(NO7)2
_symmetry_space_group_name_H-M   'P 1'
_cell_length_a   12.22862769
_cell_length_b   12.02947226
_cell_length_c   27.93807353
_cell_angle_alpha   89.59062609
_cell_angle_beta   90.23801873
_cell_angle_gamma   120.19898949
_symmetry_Int_Tables_number   1
_chemical_formula_structural   Al3H24C48(NO7)2
_chemical_formula_sum   'Al6 H48 C96 N4 O28'
_cell_volume   3551.94217049
_cell_formula_units_Z   2
loop_
 _symmetry_equiv_pos_site_id
 _symmetry_equiv_pos_as_xyz
  1  'x, y, z'
loop_
 _atom_site_type_symbol
 _atom_site_label
 _atom_site_symmetry_multiplicity
 _atom_site_fract_x
 _atom_site_fract_y
 _atom_site_fract_z
 _atom_site_occupancy
 _atom_site_pbe_bader_charge
 _atom_site_pbe_bader_spin_density
 _atom_site_pbe_cm5_charge
 _atom_site_pbe_ddec_charge
 _atom_site_pbe_ddec_spin_density
 _atom_site_pbe_ddec_sum_bond_order
 _atom_site_pbe_magmom
Al  Al0  1  0.59985794  0.20743272  0.49735623  1  2.491895  0  0.394215  1.688462  0  2.555051  0
Al  Al1  1  0.34611638  0.93239740  0.49725459  1  2.481501  0  0.501412  1.656048  0  2.512371  0
Al  Al2  1  0.59351277  0.93746488  0.50093619  1  2.479936  0  0.508568  1.66632  0  2.502777  0
Al  Al3  1  0.08964935  0.15769910  0.98355269  1  2.489604  0  0.393287  1.69069  0  2.554897  0
Al  Al4  1  0.09093633  0.42533142  0.98366937  1  2.482574  0  0.507838  1.663714  0  2.5008  0
Al  Al5  1  0.34056813  0.43570939  0.98363753  1  2.478593  0  0.500114  1.655298  0  2.521449  0
H  H6  1  0.19973819  0.75278970  0.21096032  1  0.058556  0  0.104289  0.09338  0  0.991304  0
H  H7  1  0.15068597  0.55671059  0.27890365  1  0.083551  0  0.105875  0.097659  0  0.990635  0
H  H8  1  0.00978711  0.53825408  0.77674777  1  0.059943  0  0.095108  0.094532  0  1.051132  0
H  H9  1  0.02511286  0.57703208  0.69136212  1  0.029661  0  0.09806  0.088744  0  1.033047  0
H  H10  1  0.64899444  0.78522473  0.78931737  1  0.051568  0  0.095936  0.087696  0  1.053886  0
H  H11  1  0.66288278  0.82067028  0.70369886  1  0.05544  0  0.096597  0.096715  0  1.043414  0
H  H12  1  0.56265004  0.80901281  0.62565374  1  0.094124  0  0.109909  0.116638  0  1.012926  0
H  H13  1  0.94124542  0.06497185  0.86148412  1  0.091594  0  0.114393  0.118985  0  1.015843  0
H  H14  1  0.82077431  0.99961563  0.62174592  1  0.078825  0  0.107129  0.114023  0  0.998107  0
H  H15  1  0.42910668  0.91840793  0.25940920  1  0.067477  0  0.100335  0.087195  0  1.027227  0
H  H16  1  0.85511676  0.36762573  0.86491860  1  0.100802  0  0.10902  0.114969  0  0.996211  0
H  H17  1  0.68947798  0.19726771  0.20735979  1  0.07677  0  0.101991  0.092273  0  0.996591  0
H  H18  1  0.72973092  0.40003334  0.70515432  1  0.059178  0  0.098379  0.097634  0  1.025503  0
H  H19  1  0.72264278  0.29562529  0.62730061  1  0.097227  0  0.110555  0.12183  0  1.006966  0
H  H20  1  0.46690588  0.43660874  0.84920067  1  0.104131  0  0.101986  0.106494  0  1.031598  0
H  H21  1  0.50598421  0.33517514  0.61283084  1  0.11939  0  0.114256  0.125988  0  0.990261  0
H  H22  1  0.55577933  0.52170293  0.76855307  1  0.056551  0  0.09628  0.097578  0  1.028436  0
H  H23  1  0.56779313  0.48592177  0.68219993  1  0.074463  0  0.104041  0.104979  0  0.991121  0
H  H24  1  0.19781779  0.03719506  0.86957101  1  0.084395  0  0.112385  0.11585  0  1.012433  0
H  H25  1  0.55776641  0.83105969  0.19950552  1  0.055314  0  0.105885  0.098807  0  0.988279  0
H  H26  1  0.16179803  0.84493808  0.71437916  1  0.053455  0  0.093431  0.108278  0  1.04791  0
H  H27  1  0.23659536  0.93332460  0.63268448  1  0.120599  0  0.099609  0.105335  0  1.037083  0
H  H28  1  0.55344580  0.36399641  0.21933371  1  0.082257  0  0.102934  0.09238  0  0.988512  0
H  H29  1  0.50865965  0.63453979  0.26751479  1  0.084669  0  0.104607  0.094471  0  0.988814  0
H  H30  1  0.28005224  0.46926560  0.21893267  1  0.045868  0  0.10117  0.089269  0  1.017385  0
H  H31  1  0.86715727  0.99464538  0.21375442  1  0.092369  0  0.102928  0.092256  0  0.988447  0
H  H32  1  0.03636918  0.16802537  0.28353638  1  0.075199  0  0.103363  0.097429  0  0.994965  0
H  H33  1  0.66278003  0.98806229  0.26476263  1  0.058971  0  0.099769  0.090362  0  1.017622  0
H  H34  1  0.85918887  0.37051559  0.27700610  1  0.074516  0  0.103933  0.093658  0  0.986994  0
H  H35  1  0.06326264  0.37699084  0.22609013  1  0.076303  0  0.09759  0.084654  0  1.036874  0
H  H36  1  0.05323552  0.62011749  0.62458865  1  0.483542  0  0.316662  0.311308  0  0.944941  0
H  H37  1  0.15375505  0.69368717  0.57577638  1  0.496096  0  0.31484  0.324807  0  0.960764  0
H  H38  1  0.62136357  0.74146458  0.85476336  1  0.467791  0  0.315013  0.311203  0  0.94904  0
H  H39  1  0.37480503  0.37380660  0.28168072  1  0.072261  0  0.102893  0.093554  0  0.997469  0
H  H40  1  0.52283193  0.67064203  0.90449054  1  0.512499  0  0.314316  0.323494  0  0.964577  0
H  H41  1  0.96975273  0.95397288  0.82019998  1  0.45487  0  0.299189  0.291035  0  0.974551  0
H  H42  1  0.95988993  0.88232461  0.76825188  1  0.442745  0  0.297904  0.295245  0  0.965361  0
H  H43  1  0.89533174  0.93851414  0.69491071  1  0.038331  0  0.10203  0.11698  0  0.99375  0
H  H44  1  0.77232424  0.42185921  0.79210535  1  0.054503  0  0.101538  0.102335  0  0.995663  0
H  H45  1  0.11512993  0.76913895  0.79479051  1  0.434849  0  0.287848  0.280227  0  1.00543  0
H  H46  1  0.16302706  0.86671440  0.84249305  1  0.446492  0  0.306447  0.299529  0  0.942418  0
H  H47  1  0.50714829  0.13386200  0.26582224  1  0.057217  0  0.100496  0.088968  0  1.008183  0
H  H48  1  0.31267030  0.98975190  0.19756385  1  0.073634  0  0.102267  0.092716  0  1.003274  0
H  H49  1  0.13406056  0.99963386  0.25986409  1  0.05189  0  0.102732  0.09238  0  0.990261  0
H  H50  1  0.18109101  0.23024457  0.21325325  1  0.067205  0  0.101122  0.092446  0  1.009654  0
H  H51  1  0.11133207  0.55223535  0.85564128  1  0.083641  0  0.1065  0.11514  0  1.017443  0
H  H52  1  0.70988655  0.41626342  0.46572000  1  0.571679  0  0.290265  0.381078  0  0.926279  0
H  H53  1  0.99354048  0.94539654  0.01205283  1  0.597452  0  0.290764  0.382592  0  0.923884  0
C  C54  1  0.37878107  0.11255686  0.42885795  1  1.686329  0  0.277586  0.712524  0  4.160877  0
C  C55  1  0.38053654  0.72852717  0.33823322  1  -0.493973  0  -0.021676  -0.031399  0  4.063661  0
C  C56  1  0.95979607  0.17446280  0.26587297  1  -0.035274  0  -0.070799  -0.084385  0  3.63461  0
C  C57  1  0.40585150  0.79445597  0.42957983  1  1.647207  0  0.281498  0.720954  0  4.151996  0
C  C58  1  0.86508472  0.07772210  0.22830998  1  -0.052393  0  -0.07202  -0.08408  0  3.6381  0
C  C59  1  0.91773261  0.22326300  0.10353397  1  -0.106817  0  -0.043854  -0.198374  0  3.975421  0
C  C60  1  0.79716332  0.14037379  0.38626416  1  -0.079208  0  -0.042273  -0.19673  0  3.977452  0
C  C61  1  0.97425971  0.29064493  0.23535816  1  -0.037154  0  -0.072464  -0.084168  0  3.638422  0
C  C62  1  0.87976441  0.19408665  0.19659663  1  0.077403  0  0.006901  0.122338  0  3.803037  0
C  C63  1  0.86102500  0.28739237  0.26237465  1  -0.029804  0  -0.070889  -0.082604  0  3.634492  0
C  C64  1  0.84614514  0.17101747  0.29402351  1  0.104716  0  0.008603  0.125365  0  3.80599  0
C  C65  1  0.38846733  0.74794366  0.38125448  1  0.222281  0  -0.039996  -0.19908  0  3.960245  0
C  C66  1  0.76608899  0.19062913  0.22491721  1  -0.033169  0  -0.069949  -0.078972  0  3.631397  0
C  C67  1  0.75172366  0.07437305  0.25529954  1  -0.021165  0  -0.070132  -0.08168  0  3.632196  0
C  C68  1  0.89899938  0.20929820  0.14655779  1  -0.166152  0  -0.029819  -0.046522  0  4.085365  0
C  C69  1  0.74136030  0.11832973  0.43308984  1  1.664746  0  0.275305  0.711809  0  4.166273  0
C  C70  1  0.82350699  0.15528179  0.34381795  1  -0.190141  0  -0.028342  -0.04401  0  4.086218  0
C  C71  1  0.36136715  0.28913596  0.26232993  1  -0.032476  0  -0.070287  -0.081066  0  3.631784  0
C  C72  1  0.46040157  0.28315752  0.22878380  1  -0.039556  0  -0.071235  -0.082887  0  3.637417  0
C  C73  1  0.34641747  0.23524985  0.09810383  1  0.269851  0  -0.042967  -0.1988  0  3.97056  0
C  C74  1  0.34394989  0.12872106  0.38112177  1  0.215232  0  -0.041933  -0.194591  0  3.9684  0
C  C75  1  0.25309908  0.20852118  0.22583443  1  -0.033551  0  -0.069852  -0.082305  0  3.632649  0
C  C76  1  0.31290467  0.56906975  0.22863967  1  -0.006164  0  -0.066966  -0.076999  0  3.621569  0
C  C77  1  0.35263508  0.20314938  0.19108198  1  0.104979  0  0.008369  0.122483  0  3.804811  0
C  C78  1  0.22722826  0.08042958  0.25046644  1  -0.011079  0  -0.071851  -0.085987  0  3.638554  0
C  C79  1  0.33516773  0.16030073  0.28820175  1  0.130153  0  0.008003  0.121841  0  3.802146  0
C  C80  1  0.32629794  0.07442630  0.21693437  1  -0.02959  0  -0.069798  -0.079348  0  3.626783  0
C  C81  1  0.38582565  0.11000446  0.56719793  1  1.540332  0  0.27325  0.642728  0  4.078584  0
C  C82  1  0.43469512  0.15512444  0.25337417  1  -0.020438  0  -0.068881  -0.078578  0  3.629755  0
C  C83  1  0.35376124  0.22204313  0.14108793  1  -0.551618  0  -0.026821  -0.040274  0  4.078727  0
C  C84  1  0.33458905  0.14136938  0.33822019  1  -0.513838  0  -0.028447  -0.045242  0  4.080337  0
C  C85  1  0.24381414  0.69063108  0.63715587  1  0.47542  0  0.124655  0.270326  0  4.028434  0
C  C86  1  0.23180849  0.66219517  0.68743785  1  0.026206  0  -0.018836  -0.047254  0  3.987494  0
C  C87  1  0.33990051  0.67843069  0.19034669  1  0.119425  0  0.009266  0.119542  0  3.788269  0
C  C88  1  0.21115220  0.61638639  0.78855051  1  0.028768  0  -0.023414  0.046599  0  4.085587  0
C  C89  1  0.10244052  0.58387237  0.75967209  1  -0.121931  0  -0.099006  -0.14396  0  4.039719  0
C  C90  1  0.11202239  0.60569031  0.71135091  1  -0.036364  0  -0.100537  -0.133262  0  4.048716  0
C  C91  1  0.20290616  0.59480067  0.83786449  1  -0.013381  0  -0.087834  -0.137568  0  3.982561  0
C  C92  1  0.30882071  0.62040183  0.86576945  1  -0.018352  0  -0.033081  -0.181172  0  3.982095  0
C  C93  1  0.39089435  0.78226983  0.56465053  1  1.484359  0  0.273775  0.657189  0  4.054865  0
C  C94  1  0.47098611  0.76757753  0.64326189  1  -0.008499  0  -0.075568  -0.114129  0  3.956747  0
C  C95  1  0.46239487  0.74591361  0.69258778  1  -0.004407  0  -0.019279  0.049993  0  4.076363  0
C  C96  1  0.34140885  0.69263856  0.71516387  1  -0.032057  0  0.01073  0.030211  0  3.908878  0
C  C97  1  0.57094924  0.77737523  0.72113977  1  0.043388  0  -0.089643  -0.113861  0  4.005205  0
C  C98  1  0.44013718  0.66086941  0.25459934  1  -0.031685  0  -0.069547  -0.081175  0  3.633566  0
C  C99  1  0.56195330  0.75703772  0.76950083  1  -0.117194  0  -0.102554  -0.140184  0  4.039247  0
C  C100  1  0.44222095  0.70164267  0.79334240  1  0.018912  0  -0.016923  -0.039989  0  3.983611  0
C  C101  1  0.33238164  0.67089788  0.76583743  1  -0.006345  0  0.008719  0.026919  0  3.907458  0
C  C102  1  0.43069025  0.67356458  0.84370426  1  0.48002  0  0.123839  0.26907  0  4.029241  0
C  C103  1  0.36581001  0.74262529  0.61524624  1  0.021056  0  -0.028775  -0.178996  0  3.974872  0
C  C104  1  0.81229423  0.07105855  0.64269862  1  0.03612  0  -0.08359  -0.150479  0  3.932251  0
C  C105  1  0.72563207  0.12285213  0.56972546  1  1.540135  0  0.272231  0.640289  0  4.083826  0
C  C106  1  0.84100739  0.08450206  0.69179696  1  -0.044146  0  -0.006261  0.095707  0  4.081944  0
C  C107  1  0.88463308  0.10568710  0.79236384  1  -0.005794  0  -0.007026  -0.009646  0  3.985194  0
C  C108  1  0.89891513  0.01195407  0.76477766  1  0.412302  0  0.098997  0.262845  0  4.09716  0
C  C109  1  0.36839872  0.70908324  0.28812809  1  0.113543  0  0.009604  0.119154  0  3.789746  0
C  C110  1  0.88158669  0.00682012  0.71591066  1  -0.025251  0  -0.113831  -0.2822  0  3.988013  0
C  C111  1  0.91038010  0.12217640  0.84136091  1  -0.01149  0  -0.079335  -0.130279  0  3.934496  0
C  C112  1  0.90249845  0.21775384  0.86688078  1  -0.045201  0  -0.018669  -0.04587  0  4.030014  0
C  C113  1  0.75667459  0.23890410  0.64589072  1  -0.083483  0  -0.084026  -0.154466  0  3.9322  0
C  C114  1  0.78182976  0.25353813  0.69510944  1  0.041544  0  -0.007889  0.078272  0  4.052568  0
C  C115  1  0.82314117  0.17521546  0.71853565  1  -0.042999  0  -0.000463  -0.010701  0  3.922586  0
C  C116  1  0.76411552  0.34267974  0.72307318  1  -0.026507  0  -0.087178  -0.12147  0  4.002526  0
C  C117  1  0.24077796  0.61723148  0.26069227  1  -0.02765  0  -0.068721  -0.078034  0  3.624058  0
C  C118  1  0.78721843  0.35433022  0.77114368  1  -0.094289  0  -0.090934  -0.135516  0  4.018149  0
C  C119  1  0.83093183  0.27848703  0.79549132  1  0.033084  0  -0.005171  0.074938  0  4.030871  0
C  C120  1  0.46771449  0.77031198  0.21771629  1  -0.023827  0  -0.068884  -0.081333  0  3.628661  0
C  C121  1  0.84631736  0.18626684  0.76858195  1  0.027463  0  0.009152  0.019938  0  3.919461  0
C  C122  1  0.86156701  0.29441120  0.84435471  1  -0.068049  0  -0.079086  -0.143326  0  3.940559  0
C  C123  1  0.76962932  0.14653301  0.62025453  1  0.012606  0  -0.017898  -0.041293  0  4.03234  0
C  C124  1  0.44424653  0.25686396  0.63689526  1  -0.120357  0  -0.079419  -0.150357  0  3.928892  0
C  C125  1  0.43848791  0.27927578  0.68574166  1  -0.011379  0  -0.006944  0.07756  0  4.048167  0
C  C126  1  0.42511907  0.32043253  0.78542355  1  -0.037192  0  -0.0053  0.079013  0  4.024649  0
C  C127  1  0.50304917  0.42499754  0.75376238  1  -0.102746  0  -0.090203  -0.129272  0  4.003187  0
C  C128  1  0.50933650  0.40530958  0.70603389  1  0.043252  0  -0.086556  -0.126917  0  4.013381  0
C  C129  1  0.26842886  0.72671422  0.22389681  1  -0.004805  0  -0.069494  -0.080227  0  3.632408  0
C  C130  1  0.41442519  0.34015116  0.83421775  1  -0.053957  0  -0.079597  -0.137075  0  3.922261  0
C  C131  1  0.39574404  0.81849272  0.24984192  1  -0.021621  0  -0.068328  -0.077865  0  3.625887  0
C  C132  1  0.33158855  0.23741963  0.86342458  1  -0.060372  0  -0.020544  -0.045281  0  4.032691  0
C  C133  1  0.29185380  0.02899524  0.64808853  1  -0.072841  0  -0.084053  -0.144013  0  3.913967  0
C  C134  1  0.28650794  0.04668708  0.69749174  1  0.048092  0  -0.007822  0.098649  0  4.071266  0
C  C135  1  0.36010332  0.17347130  0.71654573  1  -0.056721  0  -0.000612  -0.010387  0  3.920005  0
C  C136  1  0.21263036  0.94181000  0.72912462  1  0.027299  0  -0.116654  -0.279613  0  3.974553  0
C  C137  1  0.20774039  0.95902226  0.77758657  1  0.336484  0  0.091091  0.243864  0  4.106555  0
C  C138  1  0.27466830  0.08775742  0.79719619  1  -0.028503  0  -0.00894  -0.010809  0  3.995635  0
C  C139  1  0.35372488  0.19338288  0.76625636  1  0.051631  0  0.007987  0.017698  0  3.917377  0
C  C140  1  0.26272187  0.11252633  0.84514028  1  0.034971  0  -0.083422  -0.142945  0  3.954067  0
C  C141  1  0.31043836  0.63285300  0.09773215  1  0.223751  0  -0.041877  -0.204235  0  3.961344  0
C  C142  1  0.32451780  0.65669261  0.14043725  1  -0.468341  0  -0.017271  -0.023497  0  4.056866  0
C  C143  1  0.37079154  0.13274939  0.61834317  1  0.018808  0  -0.017863  -0.04286  0  4.026925  0
C  C144  1  0.96078707  0.24338524  0.05467751  1  1.680585  0  0.2753  0.713371  0  4.162908  0
C  C145  1  0.28687123  0.57916359  0.05049855  1  1.622518  0  0.283085  0.722404  0  4.149674  0
C  C146  1  0.31350741  0.25288200  0.05032200  1  1.673075  0  0.277079  0.713119  0  4.164863  0
C  C147  1  0.95029445  0.24119288  0.91685892  1  1.554869  0  0.273003  0.637118  0  4.089217  0
C  C148  1  0.28514840  0.57922444  0.91619262  1  1.493483  0  0.269744  0.654816  0  4.059707  0
C  C149  1  0.30598836  0.26032959  0.91318682  1  1.537208  0  0.271055  0.640722  0  4.085222  0
N  N150  1  0.14151608  0.67017280  0.61106961  1  -1.300817  0  -0.576463  -0.591686  0  3.36725  0
N  N151  1  0.53416568  0.69648923  0.86943890  1  -1.289724  0  -0.576656  -0.589571  0  3.370568  0
N  N152  1  0.92329639  0.92548396  0.78849961  1  -1.251786  0  -0.600558  -0.622224  0  3.350195  0
N  N153  1  0.13397135  0.85578987  0.80786646  1  -1.228166  0  -0.598488  -0.612603  0  3.322621  0
O  O154  1  0.71326584  0.19974002  0.44787771  1  -1.21834  0  -0.21095  -0.562865  0  2.293558  0
O  O155  1  0.36806770  0.55141882  0.03441747  1  -1.240865  0  -0.228795  -0.588756  0  2.255371  0
O  O156  1  0.39343210  0.35596674  0.02768203  1  -1.250539  0  -0.243962  -0.604063  0  2.227013  0
O  O157  1  0.48994275  0.19268239  0.44184122  1  -1.220012  0  -0.208243  -0.556488  0  2.293213  0
O  O158  1  0.20651633  0.17363062  0.93309867  1  -1.246352  0  -0.214995  -0.561312  0  2.34968  0
O  O159  1  0.98114959  0.16392023  0.93455339  1  -1.250918  0  -0.21363  -0.560589  0  2.374889  0
O  O160  1  0.96377466  0.34236864  0.93832232  1  -1.270994  0  -0.249857  -0.612722  0  2.265134  0
O  O161  1  0.17609424  0.54544004  0.93392156  1  -1.277814  0  -0.23948  -0.604436  0  2.31079  0
O  O162  1  0.37161114  0.57182319  0.94070282  1  -1.274409  0  -0.242157  -0.614413  0  2.3104  0
O  O163  1  0.38479570  0.36977251  0.93220806  1  -1.282766  0  -0.251709  -0.620506  0  2.288365  0
O  O164  1  0.17461777  0.34151101  0.98446082  1  -1.607973  0  -0.390894  -1.266727  0  2.293429  0
O  O165  1  0.30680991  0.79215581  0.53948501  1  -1.27079  0  -0.240696  -0.610538  0  2.295592  0
O  O166  1  0.29620276  0.01501428  0.45347773  1  -1.265835  0  -0.244647  -0.606644  0  2.221481  0
O  O167  1  0.32290633  0.82017523  0.44529982  1  -1.240385  0  -0.23014  -0.590848  0  2.251398  0
O  O168  1  0.50478744  0.81269311  0.45196817  1  -1.23428  0  -0.226443  -0.583986  0  2.24326  0
O  O169  1  0.71963385  0.01413702  0.45484009  1  -1.246525  0  -0.241724  -0.602308  0  2.23027  0
O  O170  1  0.70032325  0.20217319  0.55012819  1  -1.248843  0  -0.213861  -0.561787  0  2.365742  0
O  O171  1  0.47932014  0.19739482  0.54461110  1  -1.244048  0  -0.213874  -0.559276  0  2.342284  0
O  O172  1  0.30505740  0.99939459  0.54944188  1  -1.282174  0  -0.252481  -0.621713  0  2.285635  0
O  O173  1  0.49955759  0.81229100  0.54751616  1  -1.273392  0  -0.236293  -0.600826  0  2.311781  0
O  O174  1  0.71034410  0.01914910  0.54980263  1  -1.278509  0  -0.250247  -0.617769  0  2.278283  0
O  O175  1  0.51234794  0.02352060  0.49783021  1  -1.608508  0  -0.391866  -1.26852  0  2.297724  0
O  O176  1  0.20603042  0.16836993  0.03534181  1  -1.220631  0  -0.210401  -0.56298  0  2.298939  0
O  O177  1  0.98386521  0.16105086  0.03699601  1  -1.218146  0  -0.212417  -0.563212  0  2.288777  0
O  O178  1  0.97686497  0.34681473  0.03395789  1  -1.248976  0  -0.243971  -0.605729  0  2.23162  0
O  O179  1  0.18491877  0.55694287  0.02934562  1  -1.242057  0  -0.227168  -0.586821  0  2.241865  0
O  O180  1  0.67967946  0.37628315  0.49668710  1  -1.361735  0  -0.581562  -0.999542  0  1.791796  0
O  O181  1  0.01093202  0.98881940  0.98141092  1  -1.389968  0  -0.584094  -1.003939  0  1.791084  0
