# generated using pymatgen
data_ZnH12C19N(ClO4)2
_symmetry_space_group_name_H-M   'P 1'
_cell_length_a   10.75334279
_cell_length_b   12.80473795
_cell_length_c   12.98802630
_cell_angle_alpha   82.12281045
_cell_angle_beta   87.37756264
_cell_angle_gamma   77.95260165
_symmetry_Int_Tables_number   1
_chemical_formula_structural   ZnH12C19N(ClO4)2
_chemical_formula_sum   'Zn2 H24 C38 N2 Cl4 O16'
_cell_volume   1732.20682506
_cell_formula_units_Z   2
loop_
 _symmetry_equiv_pos_site_id
 _symmetry_equiv_pos_as_xyz
  1  'x, y, z'
loop_
 _atom_site_type_symbol
 _atom_site_label
 _atom_site_symmetry_multiplicity
 _atom_site_fract_x
 _atom_site_fract_y
 _atom_site_fract_z
 _atom_site_occupancy
 _atom_site_pbe_bader_charge
 _atom_site_pbe_bader_spin_density
 _atom_site_pbe_cm5_charge
 _atom_site_pbe_ddec_charge
 _atom_site_pbe_ddec_spin_density
 _atom_site_pbe_ddec_sum_bond_order
 _atom_site_pbe_magmom
Zn  Zn0  1  0.48353548  0.61181536  0.52434418  1  1.302364  0  0.683902  0.854499  0  2.349579  0
Zn  Zn1  1  0.54832789  0.38990101  0.46787245  1  1.295344  0  0.684731  0.863632  0  2.322964  0
H  H2  1  0.95884383  0.33797112  0.57073895  1  0.066031  0  0.105615  0.060401  0  0.955763  0
H  H3  1  0.60120911  0.94501381  0.34730931  1  0.113207  0  0.122319  0.140731  0  0.975949  0
H  H4  1  0.08198132  0.63600106  0.38282527  1  0.012415  0  0.100735  0.111619  0  0.959907  0
H  H5  1  0.09629362  0.65766644  0.51248518  1  0.097045  0  0.101012  0.124571  0  0.992001  0
H  H6  1  0.08976354  0.49551291  0.65370022  1  0.058379  0  0.09101  0.103577  0  1.014843  0
H  H7  1  0.93496458  0.37509100  0.38114275  1  0.081925  0  0.101385  0.121068  0  0.994948  0
H  H8  1  0.93789491  0.50662664  0.32028948  1  0.06071  0  0.102032  0.113361  0  0.957414  0
H  H9  1  0.15801833  0.45613675  0.33081482  1  0.086136  0  0.101809  0.078203  0  0.980567  0
H  H10  1  0.36907570  0.23842143  0.25130465  1  0.620386  0  0.321682  0.35173  0  0.910555  0
H  H11  1  0.62632969  0.13929787  0.97392079  1  0.615684  0  0.309699  0.336684  0  0.945117  0
H  H12  1  0.40505192  0.86317850  0.14787823  1  0.630245  0  0.331247  0.366638  0  0.8912  0
H  H13  1  0.15512460  0.36379954  0.62460158  1  0.092501  0  0.092383  0.11659  0  0.996229  0
H  H14  1  0.34554217  0.85315055  0.92698960  1  0.637339  0  0.31076  0.359399  0  0.947761  0
H  H15  1  0.26289826  0.96942238  0.78295253  1  0.585727  0  0.341258  0.370838  0  0.876095  0
H  H16  1  0.63337608  0.14602164  0.16613616  1  0.654968  0  0.311751  0.362265  0  0.949682  0
H  H17  1  0.45553838  0.29944259  0.63354590  1  0.651915  0  0.298044  0.345785  0  1.02618  0
H  H18  1  0.86340265  0.50787557  0.68789409  1  0.585217  0  0.282482  0.319771  0  0.992238  0
H  H19  1  0.34181291  0.68021711  0.90467411  1  0.058878  0  0.09152  0.108263  0  1.079106  0
H  H20  1  0.86315142  0.66253346  0.41910820  1  0.089015  0  0.105571  0.083651  0  0.956944  0
H  H21  1  0.37552222  0.40728530  0.27783662  1  0.086334  0  0.102743  0.128662  0  1.057901  0
H  H22  1  0.36441715  0.71139007  0.70386098  1  0.123903  0  0.107776  0.099592  0  1.073398  0
H  H23  1  0.33056403  0.09119969  0.72987773  1  0.071502  0  0.108413  0.119204  0  1.009266  0
H  H24  1  0.54953675  0.82125876  0.43757806  1  0.112099  0  0.125521  0.100387  0  0.993061  0
H  H25  1  0.63985539  0.27389382  0.31288912  1  0.121507  0  0.129955  0.119446  0  0.970125  0
C  C26  1  0.46277810  0.58092223  0.30821662  1  1.581764  0  0.210803  0.621585  0  4.147985  0
C  C27  1  0.36884576  0.55145555  0.03517531  1  0.079375  0  -0.021757  0.023544  0  4.001774  0
C  C28  1  0.38807381  0.52940070  0.14448622  1  0.001587  0  -0.006334  0.096577  0  4.010954  0
C  C29  1  0.75418910  0.49035329  0.48347273  1  1.575903  0  0.221543  0.609508  0  4.101691  0
C  C30  1  0.39431171  0.46091145  0.97584834  1  -0.021322  0  -0.001786  0.004162  0  3.961594  0
C  C31  1  0.44004763  0.35482562  0.02770024  1  0.045926  0  -0.015576  -0.090675  0  3.954593  0
C  C32  1  0.41123926  0.33748567  0.13749102  1  0.326678  0  0.070896  0.271176  0  4.079538  0
C  C33  1  0.38930892  0.42219809  0.19381936  1  0.142683  0  -0.122882  -0.301091  0  4.028145  0
C  C34  1  0.39649733  0.47211211  0.86561064  1  0.094897  0  0.021151  0.089091  0  3.969117  0
C  C35  1  0.54445306  0.30360155  0.86625467  1  0.084462  0  -0.007251  -0.002282  0  4.040689  0
C  C36  1  0.40853398  0.61184155  0.20150088  1  0.046362  0  -0.033056  -0.195697  0  3.911252  0
C  C37  1  0.13943872  0.48943614  0.49109428  1  0.041333  0  -0.015327  0.005655  0  3.783879  0
C  C38  1  0.36765917  0.88029984  0.69059676  1  0.408827  0  0.079471  0.212692  0  4.047507  0
C  C39  1  0.60646258  0.20607933  0.35787457  1  0.471253  0  0.047856  -0.024975  0  3.901911  0
C  C40  1  0.62293146  0.10747570  0.31667690  1  0.584564  0  0.090821  0.293866  0  4.111763  0
C  C41  1  0.51637000  0.44034312  0.69950106  1  1.569184  0  0.226522  0.631878  0  4.11176  0
C  C42  1  0.58610634  0.02172221  0.37804440  1  -0.023379  0  -0.070273  -0.193688  0  3.893376  0
C  C43  1  0.52486222  0.03561331  0.47468732  1  0.028193  0  0.008854  0.044051  0  3.975558  0
C  C44  1  0.50346167  0.14029248  0.50808633  1  0.503012  0  0.105532  0.076801  0  3.907824  0
C  C45  1  0.47925985  0.94727716  0.53649882  1  0.044534  0  -0.00634  -0.014461  0  3.98625  0
C  C46  1  0.40921221  0.96784189  0.62985358  1  -0.05049  0  -0.009241  0.008936  0  4.108288  0
C  C47  1  0.38400580  0.07182700  0.65911461  1  0.016091  0  -0.119078  -0.287171  0  4.03876  0
C  C48  1  0.09060274  0.43966025  0.59646203  1  -0.081416  0  -0.171904  -0.273397  0  3.854418  0
C  C49  1  0.42734310  0.15716090  0.60272736  1  0.605675  0  0.100477  0.288907  0  4.091489  0
C  C50  1  0.49947078  0.84255945  0.50892812  1  0.51267  0  0.056276  0.048425  0  3.915601  0
C  C51  1  0.39420255  0.78003428  0.65833397  1  0.552743  0  0.024007  -0.039099  0  3.932966  0
C  C52  1  0.27999768  0.49208233  0.49944999  1  1.576615  0  0.221677  0.60162  0  4.088964  0
C  C53  1  0.91947605  0.60979509  0.48126531  1  0.051615  0  -0.038942  0.093019  0  3.735351  0
C  C54  1  0.06268028  0.60582367  0.46428527  1  0.01155  0  -0.161605  -0.239582  0  3.86086  0
C  C55  1  0.95499927  0.42116159  0.58502178  1  0.496824  0  -0.003548  0.207337  0  3.826501  0
C  C56  1  0.96557210  0.44950011  0.39074533  1  -0.027904  0  -0.157555  -0.230735  0  3.861484  0
C  C57  1  0.89476973  0.49521305  0.48679916  1  0.034385  0  -0.023493  -0.086361  0  3.778771  0
C  C58  1  0.11086551  0.42883739  0.40309042  1  0.057828  0  -0.039531  0.079747  0  3.722476  0
C  C59  1  0.51560681  0.27665366  0.97139425  1  0.520116  0  0.073409  0.206016  0  4.060817  0
C  C60  1  0.48321325  0.40209607  0.81022521  1  0.127533  0  -0.028313  -0.146513  0  3.969938  0
C  C61  1  0.39393264  0.71764304  0.15212715  1  0.443975  0  0.083535  0.211697  0  4.046161  0
C  C62  1  0.36440821  0.74022585  0.04489437  1  0.466056  0  0.057405  0.186535  0  4.14294  0
C  C63  1  0.35486413  0.65942330  0.98789168  1  0.005658  0  -0.11882  -0.262173  0  4.046656  0
N  N64  1  0.45827582  0.76225020  0.56777595  1  -1.241781  0  -0.32962  -0.197286  0  3.584719  0
N  N65  1  0.54930900  0.22252554  0.44955881  1  -1.216476  0  -0.304018  -0.227366  0  3.462848  0
Cl  Cl66  1  0.86405124  0.67517479  0.59652571  1  -0.28718  0  -0.055142  -0.158667  0  1.365445  0
Cl  Cl67  1  0.17452192  0.28402606  0.42334752  1  -0.290092  0  -0.06542  -0.159034  0  1.388817  0
Cl  Cl68  1  0.65896022  0.21082238  0.80985904  1  -0.203301  0  0.018897  -0.042054  0  1.554851  0
Cl  Cl69  1  0.27817085  0.56587944  0.79835704  1  -0.185956  0  0.045983  -0.017396  0  1.683112  0
O  O70  1  0.42938488  0.64752265  0.37377514  1  -1.159372  0  -0.319025  -0.536481  0  2.31623  0
O  O71  1  0.57092528  0.17903415  0.02413834  1  -1.135641  0  -0.336214  -0.414449  0  2.368618  0
O  O72  1  0.41527554  0.79967894  0.20076561  1  -1.116275  0  -0.344706  -0.412916  0  2.273875  0
O  O73  1  0.35617099  0.84587586  0.00268029  1  -1.160924  0  -0.373746  -0.476361  0  2.298842  0
O  O74  1  0.30071174  0.89317206  0.78309392  1  -1.106499  0  -0.340113  -0.439847  0  2.295618  0
O  O75  1  0.67783792  0.09317280  0.22191007  1  -1.168113  0  -0.371144  -0.471665  0  2.264404  0
O  O76  1  0.38953677  0.25075308  0.63872322  1  -1.177037  0  -0.3462  -0.445768  0  2.403147  0
O  O77  1  0.87894781  0.43205154  0.67718999  1  -1.104103  0  -0.421773  -0.500264  0  2.184859  0
O  O78  1  0.53985847  0.49013071  0.32515147  1  -1.177789  0  -0.327577  -0.567213  0  2.312144  0
O  O79  1  0.67324680  0.57687776  0.48849753  1  -1.175404  0  -0.313417  -0.556691  0  2.40019  0
O  O80  1  0.73091978  0.39782998  0.47611843  1  -1.154996  0  -0.316623  -0.528379  0  2.306293  0
O  O81  1  0.52335686  0.53763799  0.67821005  1  -1.132883  0  -0.294828  -0.515475  0  2.316884  0
O  O82  1  0.53792774  0.37258886  0.63292503  1  -1.163849  0  -0.311453  -0.556911  0  2.467632  0
O  O83  1  0.30906068  0.56084154  0.55055424  1  -1.171473  0  -0.313808  -0.547506  0  2.329635  0
O  O84  1  0.35843627  0.42259831  0.45499492  1  -1.157976  0  -0.317118  -0.564268  0  2.478364  0
O  O85  1  0.40762321  0.23409914  0.18187915  1  -1.129015  0  -0.355914  -0.449492  0  2.309734  0
