# generated using pymatgen
data_CdH9C10I(NO)3
_symmetry_space_group_name_H-M   'P 1'
_cell_length_a   11.69656641
_cell_length_b   11.69657160
_cell_length_c   14.72908085
_cell_angle_alpha   78.85937068
_cell_angle_beta   78.85942182
_cell_angle_gamma   85.56107222
_symmetry_Int_Tables_number   1
_chemical_formula_structural   CdH9C10I(NO)3
_chemical_formula_sum   'Cd4 H36 C40 I4 N12 O12'
_cell_volume   1938.17198160
_cell_formula_units_Z   4
loop_
 _symmetry_equiv_pos_site_id
 _symmetry_equiv_pos_as_xyz
  1  'x, y, z'
loop_
 _atom_site_type_symbol
 _atom_site_label
 _atom_site_symmetry_multiplicity
 _atom_site_fract_x
 _atom_site_fract_y
 _atom_site_fract_z
 _atom_site_occupancy
 _atom_site_hle17_bader_spin_density
 _atom_site_hle17_ddec_charge
 _atom_site_hle17_ddec_spin_density
 _atom_site_hle17_ddec_sum_bond_order
 _atom_site_hle17_magmom
 _atom_site_hse06_10hf_bader_spin_density
 _atom_site_hse06_10hf_ddec_charge
 _atom_site_hse06_10hf_ddec_spin_density
 _atom_site_hse06_10hf_ddec_sum_bond_order
 _atom_site_hse06_10hf_magmom
 _atom_site_hse06_bader_spin_density
 _atom_site_hse06_ddec_charge
 _atom_site_hse06_ddec_spin_density
 _atom_site_hse06_ddec_sum_bond_order
 _atom_site_hse06_magmom
 _atom_site_pbe_bader_spin_density
 _atom_site_pbe_cm5_charge
 _atom_site_pbe_ddec_charge
 _atom_site_pbe_ddec_spin_density
 _atom_site_pbe_ddec_sum_bond_order
 _atom_site_pbe_magmom
Cd  Cd0  1  0.71704646  0.11061411  0.06643040  1  0  0.973898  0  1.856308  0  0  0.79875  0  2.309026  0  0  0.853726  0  2.260443  0  0  0.650001  0.760299  0  2.341446  0
Cd  Cd1  1  0.88938724  0.28295118  0.43357067  1  0  0.973913  0  1.856213  0  0  0.79876  0  2.308936  0  0  0.853733  0  2.260354  0  0  0.649989  0.760323  0  2.341344  0
Cd  Cd2  1  0.28295247  0.88938593  0.93357025  1  0  0.973866  0  1.856265  0  0  0.798727  0  2.308982  0  0  0.853699  0  2.260405  0  0  0.649981  0.760272  0  2.341408  0
Cd  Cd3  1  0.11061438  0.71704712  0.56643053  1  0  0.97389  0  1.85629  0  0  0.798729  0  2.309011  0  0  0.853704  0  2.260429  0  0  0.650004  0.760282  0  2.341426  0
H  H4  1  0.91649466  0.89965518  0.07535500  1  0  0.098976  0  0.940826  0  0  0.104894  0  1.005246  0  0  0.108165  0  1.002154  0  0  0.121038  0.102452  0  1.007692  0
H  H5  1  0.10034402  0.08350478  0.42464522  1  0  0.098987  0  0.940825  0  0  0.104901  0  1.005248  0  0  0.108172  0  1.002156  0  0  0.121039  0.102459  0  1.007692  0
H  H6  1  0.08350515  0.10034487  0.92464485  1  0  0.098988  0  0.94082  0  0  0.10491  0  1.005232  0  0  0.108182  0  1.00214  0  0  0.121045  0.10247  0  1.007677  0
H  H7  1  0.89965662  0.91649613  0.57535368  1  0  0.098974  0  0.940792  0  0  0.104892  0  1.005224  0  0  0.108164  0  1.002131  0  0  0.121048  0.102463  0  1.007653  0
H  H8  1  0.02701551  0.77859667  0.18394167  1  0  0.115485  0  0.978898  0  0  0.120382  0  1.049587  0  0  0.125152  0  1.045434  0  0  0.106351  0.116889  0  1.05276  0
H  H9  1  0.22140329  0.97298156  0.31606055  1  0  0.115497  0  0.978902  0  0  0.120381  0  1.049581  0  0  0.125162  0  1.045432  0  0  0.106356  0.116887  0  1.052757  0
H  H10  1  0.97298168  0.22140337  0.81605994  1  0  0.115494  0  0.978889  0  0  0.120391  0  1.049559  0  0  0.12517  0  1.045409  0  0  0.106359  0.116896  0  1.052735  0
H  H11  1  0.77859579  0.02701499  0.68394130  1  0  0.115503  0  0.978861  0  0  0.1204  0  1.049541  0  0  0.125169  0  1.045391  0  0  0.106359  0.116912  0  1.052709  0
H  H12  1  0.72813920  0.07213068  0.28170167  1  0  0.093533  0  0.933719  0  0  0.099109  0  1.000264  0  0  0.101445  0  0.99867  0  0  0.119378  0.097437  0  1.00133  0
H  H13  1  0.92787021  0.27185722  0.21829629  1  0  0.093574  0  0.933728  0  0  0.099149  0  1.000267  0  0  0.101483  0  0.998677  0  0  0.119375  0.097475  0  1.001334  0
H  H14  1  0.27185887  0.92786937  0.71829641  1  0  0.093546  0  0.933725  0  0  0.09912  0  1.000273  0  0  0.101455  0  0.998682  0  0  0.119363  0.097446  0  1.00134  0
H  H15  1  0.07213062  0.72813934  0.78170258  1  0  0.093532  0  0.933729  0  0  0.099114  0  1.000264  0  0  0.101448  0  0.998672  0  0  0.119348  0.097437  0  1.001336  0
H  H16  1  0.83420851  0.95568227  0.40405339  1  0  0.121463  0  0.942342  0  0  0.1291  0  1.004728  0  0  0.132355  0  1.003537  0  0  0.115126  0.126691  0  1.005842  0
H  H17  1  0.04432084  0.16578662  0.09594549  1  0  0.121406  0  0.942381  0  0  0.129074  0  1.004741  0  0  0.13233  0  1.003551  0  0  0.115135  0.126659  0  1.005863  0
H  H18  1  0.16578861  0.04431952  0.59594524  1  0  0.121434  0  0.942349  0  0  0.129113  0  1.004708  0  0  0.132369  0  1.003516  0  0  0.115145  0.126701  0  1.005827  0
H  H19  1  0.95568093  0.83420819  0.90405350  1  0  0.121459  0  0.942325  0  0  0.129098  0  1.004706  0  0  0.132353  0  1.003514  0  0  0.115137  0.126684  0  1.005828  0
H  H20  1  0.05767130  0.35297936  0.89632401  1  0  0.09201  0  0.96189  0  0  0.100976  0  1.026271  0  0  0.10425  0  1.024434  0  0  0.093201  0.098588  0  1.027766  0
H  H21  1  0.64702035  0.94232986  0.60367402  1  0  0.091978  0  0.96194  0  0  0.100947  0  1.026319  0  0  0.104234  0  1.024464  0  0  0.093193  0.098559  0  1.027811  0
H  H22  1  0.94232854  0.64701981  0.10367528  1  0  0.091991  0  0.961905  0  0  0.100956  0  1.026291  0  0  0.104245  0  1.024435  0  0  0.093183  0.098567  0  1.027782  0
H  H23  1  0.35298022  0.05767280  0.39632327  1  0  0.092037  0  0.961876  0  0  0.100997  0  1.026258  0  0  0.104283  0  1.024405  0  0  0.093206  0.098605  0  1.027758  0
H  H24  1  0.82083021  0.47439839  0.12310641  1  0  0.106107  0  0.940305  0  0  0.115563  0  0.998521  0  0  0.119623  0  0.995631  0  0  0.102514  0.112589  0  1.000802  0
H  H25  1  0.52560272  0.17916976  0.37689017  1  0  0.106079  0  0.940294  0  0  0.11553  0  0.998518  0  0  0.11959  0  0.995627  0  0  0.102499  0.112556  0  1.000804  0
H  H26  1  0.17916785  0.52560165  0.87689166  1  0  0.106123  0  0.940285  0  0  0.115572  0  0.998509  0  0  0.119633  0  0.995617  0  0  0.10251  0.112596  0  1.000793  0
H  H27  1  0.47439873  0.82083290  0.62310564  1  0  0.106093  0  0.940231  0  0  0.115551  0  0.998458  0  0  0.119611  0  0.995568  0  0  0.102511  0.112574  0  1.000746  0
H  H28  1  0.10767769  0.70740065  0.28287941  1  0  0.270177  0  0.895833  0  0  0.259641  0  0.95324  0  0  0.266525  0  0.947585  0  0  0.316653  0.254574  0  0.957711  0
H  H29  1  0.29260391  0.89232076  0.21712263  1  0  0.270133  0  0.895841  0  0  0.259574  0  0.953247  0  0  0.266455  0  0.947594  0  0  0.316612  0.254509  0  0.957714  0
H  H30  1  0.89232280  0.29260375  0.71712171  1  0  0.270141  0  0.895822  0  0  0.259586  0  0.953229  0  0  0.266469  0  0.947575  0  0  0.316615  0.254517  0  0.9577  0
H  H31  1  0.70740032  0.10767754  0.78287952  1  0  0.270144  0  0.895833  0  0  0.259611  0  0.953245  0  0  0.266493  0  0.947591  0  0  0.316641  0.254547  0  0.957711  0
H  H32  1  0.24106874  0.64478607  0.39211884  1  0  0.29652  0  0.860839  0  0  0.298488  0  0.894835  0  0  0.302658  0  0.893177  0  0  0.328214  0.295413  0  0.896275  0
H  H33  1  0.35521979  0.75893023  0.10788231  1  0  0.296569  0  0.860718  0  0  0.298536  0  0.894722  0  0  0.302706  0  0.893064  0  0  0.328218  0.295454  0  0.896167  0
H  H34  1  0.75893164  0.35522095  0.60788121  1  0  0.296557  0  0.860786  0  0  0.29852  0  0.894783  0  0  0.302688  0  0.893128  0  0  0.328224  0.295446  0  0.896222  0
H  H35  1  0.64478445  0.24106807  0.89211916  1  0  0.296574  0  0.860786  0  0  0.298536  0  0.894782  0  0  0.302706  0  0.893126  0  0  0.328235  0.295454  0  0.896229  0
H  H36  1  0.11838840  0.56883955  0.42042096  1  0  0.276629  0  0.918962  0  0  0.259526  0  0.993451  0  0  0.26653  0  0.986633  0  0  0.282254  0.25438  0  0.998503  0
H  H37  1  0.43116502  0.88161104  0.07957894  1  0  0.276579  0  0.919017  0  0  0.259502  0  0.993488  0  0  0.266503  0  0.986673  0  0  0.282246  0.254361  0  0.998503  0
H  H38  1  0.88161383  0.43116486  0.57957785  1  0  0.276575  0  0.91903  0  0  0.259497  0  0.993498  0  0  0.2665  0  0.98668  0  0  0.282253  0.254347  0  0.998552  0
H  H39  1  0.56883747  0.11838726  0.92042144  1  0  0.276643  0  0.918935  0  0  0.259558  0  0.993404  0  0  0.266561  0  0.986587  0  0  0.282275  0.254416  0  0.99842  0
C  C40  1  0.85908127  0.29935190  0.02269728  1  0  0.615222  0  3.947959  0  0  0.570974  0  4.236055  0  0  0.605126  0  4.230335  0  0  0.18405  0.547919  0  4.238801  0
C  C41  1  0.70064813  0.14091979  0.47730142  1  0  0.615252  0  3.948094  0  0  0.570974  0  4.236221  0  0  0.605125  0  4.230499  0  0  0.184011  0.547926  0  4.238968  0
C  C42  1  0.14091770  0.70064727  0.97730215  1  0  0.615157  0  3.948114  0  0  0.570864  0  4.236266  0  0  0.605016  0  4.230546  0  0  0.183953  0.547808  0  4.239013  0
C  C43  1  0.29935156  0.85908287  0.52269736  1  0  0.615086  0  3.94822  0  0  0.57081  0  4.236345  0  0  0.60496  0  4.23063  0  0  0.183973  0.547756  0  4.239088  0
C  C44  1  0.90004073  0.90947734  0.14879266  1  0  0.141834  0  3.660895  0  0  0.113905  0  3.910788  0  0  0.120184  0  3.92849  0  0  0.052814  0.109683  0  3.899005  0
C  C45  1  0.09052386  0.09995824  0.35120731  1  0  0.141797  0  3.660926  0  0  0.113861  0  3.910806  0  0  0.12014  0  3.928508  0  0  0.052822  0.109643  0  3.899013  0
C  C46  1  0.09995817  0.09052358  0.85120719  1  0  0.141808  0  3.660906  0  0  0.113872  0  3.910788  0  0  0.120151  0  3.92849  0  0  0.052824  0.10965  0  3.899002  0
C  C47  1  0.90947776  0.90004006  0.64879252  1  0  0.141865  0  3.66095  0  0  0.113913  0  3.910858  0  0  0.120193  0  3.928556  0  0  0.052816  0.109689  0  3.899056  0
C  C48  1  0.96241717  0.84100419  0.21233273  1  0  -0.128402  0  3.700889  0  0  -0.155761  0  3.957823  0  0  -0.161089  0  3.978275  0  0  -0.080239  -0.152054  0  3.943738  0
C  C49  1  0.15899714  0.03758060  0.28766814  1  0  -0.128342  0  3.700935  0  0  -0.155659  0  3.957821  0  0  -0.161003  0  3.978289  0  0  -0.080215  -0.151953  0  3.94374  0
C  C50  1  0.03758086  0.15899673  0.78766793  1  0  -0.128313  0  3.700907  0  0  -0.155651  0  3.957798  0  0  -0.160993  0  3.978264  0  0  -0.080205  -0.151945  0  3.943714  0
C  C51  1  0.84100198  0.96241508  0.71233180  1  0  -0.128495  0  3.700862  0  0  -0.155835  0  3.957787  0  0  -0.161165  0  3.978243  0  0  -0.080268  -0.152124  0  3.943689  0
C  C52  1  0.79500311  0.00556550  0.26396726  1  0  0.13098  0  3.681108  0  0  0.101957  0  3.933948  0  0  0.108044  0  3.953073  0  0  0.054076  0.097741  0  3.921238  0
C  C53  1  0.99443790  0.20499434  0.23603088  1  0  0.130749  0  3.681312  0  0  0.101737  0  3.934152  0  0  0.107827  0  3.953274  0  0  0.053996  0.097521  0  3.921448  0
C  C54  1  0.20499571  0.99443716  0.73603097  1  0  0.130814  0  3.681171  0  0  0.1018  0  3.934022  0  0  0.10789  0  3.953145  0  0  0.054026  0.097585  0  3.921315  0
C  C55  1  0.00556463  0.79500309  0.76396895  1  0  0.130788  0  3.681133  0  0  0.101761  0  3.933975  0  0  0.107849  0  3.953101  0  0  0.053988  0.097542  0  3.921278  0
C  C56  1  0.85381539  0.94106064  0.33180395  1  0  -0.098221  0  3.665293  0  0  -0.120933  0  3.908874  0  0  -0.125668  0  3.929934  0  0  -0.066774  -0.117997  0  3.89525  0
C  C57  1  0.05894417  0.14618380  0.16819474  1  0  -0.098032  0  3.665241  0  0  -0.120783  0  3.908847  0  0  -0.125513  0  3.929893  0  0  -0.066771  -0.117854  0  3.895239  0
C  C58  1  0.14618511  0.05894377  0.66819445  1  0  -0.098109  0  3.665168  0  0  -0.120899  0  3.90881  0  0  -0.12563  0  3.929859  0  0  -0.066806  -0.117966  0  3.895192  0
C  C59  1  0.94105915  0.85381538  0.83180402  1  0  -0.098124  0  3.665236  0  0  -0.120832  0  3.908819  0  0  -0.125563  0  3.929867  0  0  -0.066757  -0.117904  0  3.895213  0
C  C60  1  0.94026170  0.85792222  0.30570279  1  0  -0.012508  0  3.755576  0  0  0.006105  0  3.988712  0  0  0.003167  0  4.01103  0  0  0.00453  0.008037  0  3.973634  0
C  C61  1  0.14208085  0.05973652  0.19429909  1  0  -0.012495  0  3.755562  0  0  0.006097  0  3.988722  0  0  0.003154  0  4.01105  0  0  0.00454  0.008018  0  3.973644  0
C  C62  1  0.05973799  0.14208044  0.69429804  1  0  -0.012516  0  3.755577  0  0  0.006108  0  3.988721  0  0  0.003167  0  4.011046  0  0  0.004549  0.008041  0  3.973643  0
C  C63  1  0.85792081  0.94026091  0.80570155  1  0  -0.012517  0  3.755517  0  0  0.006085  0  3.988651  0  0  0.003145  0  4.010971  0  0  0.004519  0.008011  0  3.973573  0
C  C64  1  0.03304882  0.41750611  0.94170196  1  0  -0.07396  0  3.748176  0  0  -0.095895  0  3.99521  0  0  -0.096892  0  4.016022  0  0  -0.090246  -0.095083  0  3.981101  0
C  C65  1  0.58249515  0.96695039  0.55829678  1  0  -0.073848  0  3.748155  0  0  -0.095782  0  3.995192  0  0  -0.096788  0  4.015998  0  0  -0.090228  -0.094975  0  3.981081  0
C  C66  1  0.96694924  0.58249394  0.05829747  1  0  -0.073939  0  3.748156  0  0  -0.09588  0  3.995199  0  0  -0.096889  0  4.016008  0  0  -0.090248  -0.095067  0  3.981085  0
C  C67  1  0.41750632  0.03305140  0.44170187  1  0  -0.074069  0  3.748206  0  0  -0.096008  0  3.995244  0  0  -0.097014  0  4.01605  0  0  -0.090279  -0.095197  0  3.981148  0
C  C68  1  0.89920422  0.48642680  0.06915087  1  0  -0.072555  0  3.733528  0  0  -0.094986  0  3.980328  0  0  -0.096073  0  4.000746  0  0  -0.087237  -0.094194  0  3.966491  0
C  C69  1  0.51357335  0.10079731  0.43084768  1  0  -0.072473  0  3.733502  0  0  -0.094894  0  3.980287  0  0  -0.09598  0  4.000702  0  0  -0.087249  -0.094115  0  3.966459  0
C  C70  1  0.10079562  0.51357237  0.93084843  1  0  -0.07253  0  3.733481  0  0  -0.094953  0  3.980269  0  0  -0.096037  0  4.000678  0  0  -0.087204  -0.094165  0  3.966438  0
C  C71  1  0.48642718  0.89920623  0.56914948  1  0  -0.072598  0  3.733499  0  0  -0.095047  0  3.980318  0  0  -0.096133  0  4.000733  0  0  -0.087277  -0.094265  0  3.966499  0
C  C72  1  0.93164054  0.40316668  0.01075493  1  0  -0.06096  0  3.759171  0  0  -0.037823  0  3.98926  0  0  -0.045126  0  4.012863  0  0  -0.0205  -0.03293  0  3.973139  0
C  C73  1  0.59683443  0.06835999  0.48924299  1  0  -0.061126  0  3.759251  0  0  -0.037979  0  3.989363  0  0  -0.045284  0  4.01297  0  0  -0.020521  -0.033067  0  3.973219  0
C  C74  1  0.06835840  0.59683337  0.98924437  1  0  -0.061071  0  3.759206  0  0  -0.037919  0  3.989314  0  0  -0.045225  0  4.012921  0  0  -0.020539  -0.033022  0  3.97319  0
C  C75  1  0.40316698  0.93164354  0.51075404  1  0  -0.060853  0  3.759161  0  0  -0.037691  0  3.989219  0  0  -0.044995  0  4.012825  0  0  -0.020444  -0.03281  0  3.973113  0
C  C76  1  0.00530569  0.79315536  0.37908410  1  0  0.533831  0  3.805139  0  0  0.485929  0  4.090765  0  0  0.515619  0  4.089659  0  0  0.249919  0.465697  0  4.0914  0
C  C77  1  0.20684210  0.99468945  0.12091606  1  0  0.533782  0  3.805289  0  0  0.485878  0  4.090884  0  0  0.515577  0  4.089757  0  0  0.249934  0.465672  0  4.091491  0
C  C78  1  0.99469070  0.20684294  0.62091586  1  0  0.533825  0  3.805262  0  0  0.485895  0  4.090883  0  0  0.515595  0  4.089761  0  0  0.249901  0.465665  0  4.091513  0
C  C79  1  0.79315448  0.00530449  0.87908317  1  0  0.533883  0  3.80515  0  0  0.486008  0  4.090758  0  0  0.515699  0  4.089643  0  0  0.249962  0.465792  0  4.091376  0
I  I80  1  0.49213484  0.06656423  0.16403510  1  0  -0.574404  0  0.907296  0  0  -0.532997  0  1.175339  0  0  -0.552967  0  1.151361  0  0  -0.303951  -0.51789  0  1.191459  0
I  I81  1  0.93344552  0.50786417  0.33596577  1  0  -0.574425  0  0.907266  0  0  -0.533001  0  1.175289  0  0  -0.552971  0  1.15131  0  0  -0.303978  -0.517912  0  1.191411  0
I  I82  1  0.50786398  0.93343842  0.83596790  1  0  -0.574398  0  0.907292  0  0  -0.532983  0  1.175329  0  0  -0.552953  0  1.151351  0  0  -0.303962  -0.517895  0  1.191457  0
I  I83  1  0.06656391  0.49213501  0.66403342  1  0  -0.574396  0  0.907293  0  0  -0.532991  0  1.175343  0  0  -0.552962  0  1.151362  0  0  -0.303938  -0.517866  0  1.191461  0
N  N84  1  0.81837915  0.99051352  0.17379055  1  0  -0.314931  0  3.259458  0  0  -0.238741  0  3.520497  0  0  -0.258057  0  3.540224  0  0  -0.324646  -0.225536  0  3.507087  0
N  N85  1  0.00948644  0.18161876  0.32620836  1  0  -0.31492  0  3.259576  0  0  -0.238719  0  3.520596  0  0  -0.258034  0  3.54032  0  0  -0.324637  -0.225509  0  3.507175  0
N  N86  1  0.18161979  0.00948653  0.82620807  1  0  -0.314927  0  3.259532  0  0  -0.238713  0  3.520537  0  0  -0.258028  0  3.540262  0  0  -0.324647  -0.225507  0  3.507125  0
N  N87  1  0.99051435  0.81837867  0.67379037  1  0  -0.31478  0  3.259423  0  0  -0.238578  0  3.520447  0  0  -0.257894  0  3.540173  0  0  -0.324548  -0.225376  0  3.507043  0
N  N88  1  0.10241260  0.72957023  0.34723438  1  0  -0.270842  0  3.342774  0  0  -0.234075  0  3.602713  0  0  -0.251034  0  3.612524  0  0  -0.34118  -0.222645  0  3.596204  0
N  N89  1  0.27043411  0.89758426  0.15276860  1  0  -0.27087  0  3.342671  0  0  -0.233966  0  3.602501  0  0  -0.25092  0  3.612303  0  0  -0.341113  -0.222555  0  3.595979  0
N  N90  1  0.89758618  0.27043329  0.65276781  1  0  -0.270895  0  3.342662  0  0  -0.234022  0  3.602536  0  0  -0.25098  0  3.612342  0  0  -0.341128  -0.222589  0  3.596024  0
N  N91  1  0.72956762  0.10241142  0.84723433  1  0  -0.270834  0  3.342751  0  0  -0.234075  0  3.602689  0  0  -0.251023  0  3.612489  0  0  -0.341213  -0.222661  0  3.596167  0
N  N92  1  0.15280416  0.64942492  0.41388130  1  0  -0.469304  0  3.129519  0  0  -0.438321  0  3.374241  0  0  -0.450467  0  3.372684  0  0  -0.502376  -0.429732  0  3.375372  0
N  N93  1  0.35057914  0.84719518  0.08612072  1  0  -0.469291  0  3.129451  0  0  -0.438386  0  3.374147  0  0  -0.450532  0  3.372592  0  0  -0.502394  -0.429767  0  3.375286  0
N  N94  1  0.84719633  0.35057949  0.58611913  1  0  -0.469266  0  3.129471  0  0  -0.438344  0  3.374167  0  0  -0.450488  0  3.37261  0  0  -0.502403  -0.429752  0  3.375298  0
N  N95  1  0.64942334  0.15280312  0.91388170  1  0  -0.469383  0  3.129439  0  0  -0.438407  0  3.374146  0  0  -0.450556  0  3.372586  0  0  -0.502393  -0.429788  0  3.375284  0
O  O96  1  0.77572962  0.28239844  0.09398259  1  0  -0.627803  0  1.943381  0  0  -0.563597  0  2.170861  0  0  -0.592103  0  2.160415  0  0  -0.34308  -0.543671  0  2.177217  0
O  O97  1  0.71760602  0.22426611  0.40601282  1  0  -0.627786  0  1.943391  0  0  -0.563566  0  2.170881  0  0  -0.592073  0  2.160434  0  0  -0.343123  -0.543714  0  2.177267  0
O  O98  1  0.22426303  0.71760597  0.90601157  1  0  -0.62776  0  1.9434  0  0  -0.563533  0  2.17089  0  0  -0.592042  0  2.160446  0  0  -0.343031  -0.54361  0  2.177246  0
O  O99  1  0.28240000  0.77573133  0.59398172  1  0  -0.627745  0  1.94353  0  0  -0.563532  0  2.171015  0  0  -0.592038  0  2.160572  0  0  -0.343073  -0.543609  0  2.177371  0
O  O100  1  0.88247421  0.23024720  0.96370881  1  0  -0.644986  0  1.930692  0  0  -0.59145  0  2.167887  0  0  -0.618448  0  2.159169  0  0  -0.346845  -0.572339  0  2.173071  0
O  O101  1  0.76974706  0.11753252  0.53629432  1  0  -0.644983  0  1.930823  0  0  -0.591446  0  2.168052  0  0  -0.618441  0  2.15933  0  0  -0.346864  -0.57241  0  2.173263  0
O  O102  1  0.11753195  0.76974673  0.03629507  1  0  -0.64494  0  1.930783  0  0  -0.59139  0  2.168001  0  0  -0.618384  0  2.159279  0  0  -0.346785  -0.572275  0  2.173183  0
O  O103  1  0.23024715  0.88247624  0.46370844  1  0  -0.644923  0  1.930706  0  0  -0.591365  0  2.167891  0  0  -0.618362  0  2.159177  0  0  -0.346777  -0.572246  0  2.173068  0
O  O104  1  0.97367698  0.80103010  0.46329909  1  0  -0.517788  0  2.016774  0  0  -0.460715  0  2.249083  0  0  -0.484643  0  2.240684  0  0  -0.272993  -0.444275  0  2.254622  0
O  O105  1  0.19896830  0.02631518  0.03670582  1  0  -0.517644  0  2.017021  0  0  -0.460674  0  2.249445  0  0  -0.484605  0  2.24104  0  0  -0.272993  -0.444244  0  2.254975  0
O  O106  1  0.02631853  0.19896820  0.53670439  1  0  -0.517702  0  2.016911  0  0  -0.460663  0  2.249272  0  0  -0.484595  0  2.240869  0  0  -0.272961  -0.444223  0  2.254807  0
O  O107  1  0.80102838  0.97367614  0.96329719  1  0  -0.517769  0  2.016777  0  0  -0.460736  0  2.249106  0  0  -0.484668  0  2.240704  0  0  -0.272996  -0.444305  0  2.254641  0
