# generated using pymatgen
data_Al4H33C68(O8F3)5
_symmetry_space_group_name_H-M   'P 1'
_cell_length_a   6.70214686
_cell_length_b   20.10022195
_cell_length_c   24.09956465
_cell_angle_alpha   89.56533933
_cell_angle_beta   94.84891635
_cell_angle_gamma   90.98090333
_symmetry_Int_Tables_number   1
_chemical_formula_structural   Al4H33C68(O8F3)5
_chemical_formula_sum   'Al4 H33 C68 O40 F15'
_cell_volume   3234.40942096
_cell_formula_units_Z   1
loop_
 _symmetry_equiv_pos_site_id
 _symmetry_equiv_pos_as_xyz
  1  'x, y, z'
loop_
 _atom_site_type_symbol
 _atom_site_label
 _atom_site_symmetry_multiplicity
 _atom_site_fract_x
 _atom_site_fract_y
 _atom_site_fract_z
 _atom_site_occupancy
 _atom_site_pbe_bader_charge
 _atom_site_pbe_bader_spin_density
 _atom_site_pbe_cm5_charge
 _atom_site_pbe_ddec_charge
 _atom_site_pbe_ddec_spin_density
 _atom_site_pbe_ddec_sum_bond_order
 _atom_site_pbe_magmom
Al  Al0  1  0.13139260  0.50148567  0.49975405  1  2.501818  0  0.404076  1.641611  0  2.575345  0
Al  Al1  1  0.63078467  0.49537738  0.49712335  1  2.50231  0  0.404551  1.646989  0  2.575252  0
Al  Al2  1  0.72253919  0.99973802  0.00030531  1  2.503027  0  0.404305  1.644063  0  2.570751  0
Al  Al3  1  0.22450461  0.00064167  0.00238666  1  2.501603  0  0.403164  1.635735  0  2.58169  0
H  H4  1  0.73547515  0.71465522  0.51218956  1  0.052209  0  0.115753  0.119577  0  0.9699  0
H  H5  1  0.65338243  0.86903459  0.65569806  1  0.101498  0  0.117009  0.142566  0  0.974869  0
H  H6  1  0.67216626  0.81611792  0.56749361  1  0.07384  0  0.103949  0.10837  0  0.996545  0
H  H7  1  0.21551438  0.33220017  0.75019824  1  0.121829  0  0.11729  0.093042  0  0.954687  0
H  H8  1  0.98952305  0.13984741  0.73317745  1  0.100514  0  0.120665  0.089746  0  0.956904  0
H  H9  1  0.62518414  0.24780064  0.79580023  1  0.113932  0  0.118204  0.105779  0  0.970526  0
H  H10  1  0.36732127  0.79745176  0.34324305  1  0.136662  0  0.113366  0.090383  0  0.954292  0
H  H11  1  0.53466583  0.36425136  0.35715328  1  0.132912  0  0.11035  0.127758  0  1.048806  0
H  H12  1  0.94101056  0.17849862  0.29022969  1  0.082812  0  0.106993  0.133665  0  0.993696  0
H  H13  1  0.29030953  0.16388887  0.82298990  1  0.619914  0  0.330704  0.372703  0  0.873526  0
H  H14  1  0.10461978  0.29816001  0.85423826  1  0.647738  0  0.30933  0.366141  0  0.926847  0
H  H15  1  0.20467722  0.23077421  0.67113129  1  0.634293  0  0.306835  0.344565  0  0.958356  0
H  H16  1  0.57325567  0.15988422  0.73854529  1  0.623812  0  0.308143  0.358628  0  0.926225  0
H  H17  1  0.02809193  0.59829793  0.69676358  1  0.622174  0  0.307306  0.351751  0  0.968832  0
H  H18  1  0.90098188  0.15909323  0.63489967  1  0.621758  0  0.351269  0.391933  0  0.838396  0
H  H19  1  0.69119529  0.63719286  0.31494476  1  0.63034  0  0.343482  0.393915  0  0.846474  0
H  H20  1  0.04658833  0.67955401  0.26890710  1  0.648894  0  0.305994  0.364217  0  0.956048  0
H  H21  1  0.44029852  0.62488026  0.18477023  1  0.625489  0  0.321426  0.377065  0  0.903652  0
H  H22  1  0.31436775  0.71764271  0.10880133  1  0.635503  0  0.338511  0.390847  0  0.859615  0
H  H23  1  0.03119428  0.71976407  0.18544916  1  0.650844  0  0.300724  0.348902  0  0.973144  0
H  H24  1  0.01454146  0.80246996  0.29651807  1  0.646085  0  0.307228  0.357762  0  0.938766  0
H  H25  1  0.85518152  0.36193806  0.15417372  1  0.663437  0  0.324111  0.378104  0  0.92783  0
H  H26  1  0.88525734  0.29726621  0.06170210  1  0.648  0  0.345096  0.388661  0  0.862508  0
H  H27  1  0.75866531  0.16137529  0.01850975  1  0.640746  0  0.322785  0.376861  0  0.92127  0
H  H28  1  0.36512797  0.10625282  0.20150441  1  0.602388  0  0.345135  0.373473  0  0.855895  0
H  H29  1  0.78664875  0.39016940  0.26856491  1  0.632168  0  0.336776  0.374379  0  0.884831  0
H  H30  1  0.11820836  0.14773020  0.16708043  1  0.634499  0  0.309544  0.347095  0  0.976677  0
H  H31  1  0.91757572  0.66839143  0.98538205  1  0.59716  0  0.334502  0.364533  0  0.882628  0
H  H32  1  0.89788535  0.90633195  0.80104405  1  0.661728  0  0.302975  0.352092  0  0.976524  0
H  H33  1  0.40949595  0.51043591  0.57096254  1  0.611451  0  0.362275  0.446047  0  0.828893  0
H  H34  1  0.87274126  0.45347908  0.43777493  1  0.626797  0  0.352181  0.432542  0  0.852574  0
H  H35  1  0.44519986  0.96282251  0.93552621  1  0.629066  0  0.356818  0.44001  0  0.839292  0
H  H36  1  0.99032699  0.98971690  0.07355712  1  0.617088  0  0.356961  0.440862  0  0.838049  0
C  C37  1  0.36129879  0.57356828  0.41991176  1  1.704939  0  0.279731  0.712696  0  4.1685  0
C  C38  1  0.35366863  0.39604303  0.44622066  1  1.584109  0  0.275273  0.678842  0  4.070392  0
C  C39  1  0.90299122  0.42626122  0.57922569  1  1.686909  0  0.279737  0.719638  0  4.151762  0
C  C40  1  0.89609274  0.60092941  0.54953221  1  1.592374  0  0.27848  0.679191  0  4.075228  0
C  C41  1  0.93765096  0.83593923  0.91546286  1  0.100566  0  -0.0294  -0.226834  0  4.014748  0
C  C42  1  0.87684001  0.66271150  0.58306381  1  -0.016421  0  -0.017117  -0.135047  0  3.941718  0
C  C43  1  0.90799485  0.71504460  0.91637358  1  0.535493  0  0.065723  0.154081  0  4.128214  0
C  C44  1  0.92286677  0.77560936  0.94332329  1  0.40818  0  0.080046  0.13875  0  4.114945  0
C  C45  1  0.93119631  0.83736514  0.85740947  1  0.514507  0  0.080865  0.251416  0  4.044549  0
C  C46  1  0.89077894  0.77762749  0.82618567  1  0.055653  0  -0.016083  -0.064793  0  3.956825  0
C  C47  1  0.89258442  0.71581874  0.85727442  1  0.126482  0  -0.018682  -0.08712  0  4.03918  0
C  C48  1  0.85419969  0.77530230  0.76584656  1  0.049588  0  -0.012032  -0.051085  0  3.96798  0
C  C49  1  0.87578962  0.71482551  0.73545169  1  0.014323  0  -0.004314  -0.013717  0  3.978145  0
C  C50  1  0.88060060  0.65645861  0.76916841  1  0.439211  0  0.078649  0.0888  0  4.064299  0
C  C51  1  0.87997704  0.65622507  0.82601395  1  0.58754  0  0.094874  0.157538  0  4.082177  0
C  C52  1  0.77035132  0.82850284  0.73274766  1  0.301564  0  0.084581  0.217521  0  4.063983  0
C  C53  1  0.72924746  0.82718036  0.67664617  1  0.062371  0  -0.101839  -0.259383  0  4.033173  0
C  C54  1  0.78033139  0.77121099  0.64575499  1  0.029141  0  -0.005003  0.121887  0  4.059033  0
C  C55  1  0.86492777  0.71420290  0.67482139  1  0.033853  0  -0.016553  -0.091672  0  3.907638  0
C  C56  1  0.73973065  0.77208510  0.58733238  1  0.042484  0  -0.103048  -0.167533  0  4.032314  0
C  C57  1  0.77855875  0.71695126  0.55678405  1  -0.037659  0  -0.078384  -0.068641  0  4.03288  0
C  C58  1  0.93024695  0.66194449  0.64048359  1  0.561013  0  0.093534  0.25838  0  4.017946  0
C  C59  1  0.78050613  0.26683161  0.80119269  1  0.50196  0  0.024338  0.038611  0  3.807487  0
C  C60  1  0.15013375  0.23946398  0.79095728  1  1.01554  0  0.150624  0.406998  0  3.849059  0
C  C61  1  0.15527601  0.28347947  0.73628190  1  0.520996  0  0.000784  0.07571  0  3.81409  0
C  C62  1  0.91748061  0.37963185  0.62516412  1  0.161989  0  -0.021914  -0.158604  0  3.903134  0
C  C63  1  0.93052485  0.21049463  0.79568110  1  0.072331  0  -0.018898  -0.073446  0  3.928196  0
C  C64  1  0.81184495  0.32086952  0.75650756  1  1.13611  0  0.204259  0.41689  0  3.886257  0
C  C65  1  0.93581925  0.29373778  0.70967099  1  0.106532  0  -0.009057  -0.124064  0  3.911693  0
C  C66  1  0.84854510  0.22447549  0.69071557  1  1.015463  0  0.176006  0.411359  0  3.87251  0
C  C67  1  0.86524732  0.17301033  0.73985948  1  0.517584  0  -0.00101  0.052411  0  3.873132  0
C  C68  1  0.92963935  0.34027920  0.66352918  1  -0.350926  0  -0.029268  0.00343  0  4.048868  0
C  C69  1  0.93222004  0.16412227  0.84181027  1  -0.411804  0  -0.021905  0.002342  0  4.066363  0
C  C70  1  0.95019647  0.12430522  0.87993385  1  0.170167  0  -0.034638  -0.194948  0  3.933923  0
C  C71  1  0.62744842  0.72563816  0.28960153  1  1.103749  0  0.176756  0.346288  0  3.927685  0
C  C72  1  0.30950213  0.67740263  0.23649437  1  1.071263  0  0.151494  0.369764  0  3.874037  0
C  C73  1  0.31308671  0.73188967  0.18765202  1  1.022102  0  0.150668  0.369265  0  3.877534  0
C  C74  1  0.49288713  0.87804999  0.12556835  1  0.255991  0  -0.026964  -0.174465  0  3.902138  0
C  C75  1  0.40007092  0.70951750  0.29321732  1  0.081885  0  -0.009567  -0.094471  0  3.891363  0
C  C76  1  0.65217507  0.76721692  0.23473889  1  1.12349  0  0.207972  0.373317  0  3.840941  0
C  C77  1  0.44787977  0.79370340  0.20904874  1  0.102304  0  -0.013808  -0.177864  0  3.906788  0
C  C78  1  0.34554334  0.82757572  0.25735317  1  1.125003  0  0.202752  0.429285  0  3.843208  0
C  C79  1  0.29827369  0.77670627  0.30399456  1  0.500116  0  -0.001291  0.058046  0  3.859109  0
C  C80  1  0.47559431  0.83977818  0.16401562  1  -0.441126  0  -0.028826  0.023795  0  4.051368  0
C  C81  1  0.37682209  0.66289676  0.33832028  1  -0.50172  0  -0.029251  -0.012473  0  4.051107  0
C  C82  1  0.36336720  0.62241387  0.37547148  1  0.248306  0  -0.017873  -0.158552  0  3.890635  0
C  C83  1  0.52746797  0.15865081  0.09233763  1  0.088733  0  -0.041979  -0.267319  0  4.005912  0
C  C84  1  0.31358592  0.33611227  0.41084287  1  -0.003962  0  -0.028473  -0.145881  0  4.032167  0
C  C85  1  0.68994699  0.26602595  0.10970370  1  0.48126  0  0.057733  0.139074  0  4.070598  0
C  C86  1  0.65644053  0.21065011  0.07631334  1  0.52843  0  0.067617  0.184843  0  4.13447  0
C  C87  1  0.43756290  0.16460500  0.14246065  1  0.443971  0  0.079088  0.240177  0  4.023581  0
C  C88  1  0.45684780  0.22248795  0.17577250  1  0.045248  0  -0.030668  -0.093963  0  4.050384  0
C  C89  1  0.60046957  0.27183469  0.16031137  1  0.021295  0  -0.017927  -0.075602  0  4.070617  0
C  C90  1  0.35512822  0.23172111  0.22608958  1  -0.024367  0  -0.026861  -0.09973  0  3.989275  0
C  C91  1  0.43443167  0.27875059  0.26730700  1  0.034325  0  -0.003574  -0.024527  0  3.927368  0
C  C92  1  0.59520733  0.32148671  0.25248656  1  0.523296  0  0.073382  0.159355  0  4.040702  0
C  C93  1  0.66263368  0.32149444  0.19968019  1  0.51287  0  0.060927  0.143492  0  4.09352  0
C  C94  1  0.16349248  0.20051718  0.23464988  1  0.468873  0  0.069904  0.253403  0  4.110705  0
C  C95  1  0.08312180  0.20392492  0.28532344  1  0.090008  0  -0.118001  -0.258574  0  4.011163  0
C  C96  1  0.17359888  0.24353825  0.32859725  1  0.003126  0  -0.016292  0.008627  0  4.092858  0
C  C97  1  0.34542644  0.28463860  0.31989718  1  -0.010501  0  -0.01148  0.039689  0  3.948591  0
C  C98  1  0.08752355  0.24684305  0.38009638  1  0.504642  0  0.083235  0.111684  0  4.07144  0
C  C99  1  0.15252571  0.29233082  0.42016254  1  0.520586  0  0.093052  0.156097  0  4.100066  0
C  C100  1  0.41101870  0.33012432  0.36255563  1  0.039747  0  -0.084736  -0.129699  0  3.936924  0
C  C101  1  0.50319593  0.09898479  0.05719201  1  1.543615  0  0.270734  0.6764  0  4.060379  0
C  C102  1  0.48597329  0.92454425  0.07963728  1  1.666806  0  0.280455  0.723794  0  4.146158  0
C  C103  1  0.94973640  0.89993364  0.94727633  1  1.644369  0  0.280429  0.705484  0  4.069584  0
C  C104  1  0.96471661  0.07708948  0.92528318  1  1.689347  0  0.27935  0.720398  0  4.158857  0
O  O105  1  0.53319171  0.41671477  0.45743651  1  -1.254978  0  -0.234053  -0.589773  0  2.290447  0
O  O106  1  0.19426722  0.55981036  0.43865752  1  -1.219983  0  -0.220977  -0.559498  0  2.265028  0
O  O107  1  0.06596761  0.57986983  0.53909071  1  -1.241317  0  -0.227478  -0.576518  0  2.309081  0
O  O108  1  0.19613324  0.42445914  0.45947346  1  -1.26262  0  -0.234972  -0.608298  0  2.374609  0
O  O109  1  0.06790669  0.44736880  0.56268902  1  -1.232178  0  -0.225  -0.582626  0  2.287153  0
O  O110  1  0.53153573  0.54941650  0.43477137  1  -1.226848  0  -0.223958  -0.572961  0  2.293284  0
O  O111  1  0.39352674  0.50642678  0.53079450  1  -1.410093  0  -0.446542  -0.997905  0  2.190518  0
O  O112  1  0.72652506  0.44175593  0.56035357  1  -1.235151  0  -0.226785  -0.585557  0  2.274956  0
O  O113  1  0.72708001  0.57467450  0.53389003  1  -1.25612  0  -0.227592  -0.587779  0  2.34459  0
O  O114  1  0.87269425  0.48855175  0.46526454  1  -1.429164  0  -0.447766  -0.991583  0  2.170817  0
O  O115  1  0.30999556  0.93559676  0.05769022  1  -1.225376  0  -0.225643  -0.582388  0  2.291832  0
O  O116  1  0.65854081  0.08311298  0.03203916  1  -1.259655  0  -0.236627  -0.609127  0  2.349011  0
O  O117  1  0.80110643  0.05019954  0.93775300  1  -1.235563  0  -0.225198  -0.576304  0  2.288297  0
O  O118  1  0.64992901  0.95026293  0.06585233  1  -1.234216  0  -0.229215  -0.590997  0  2.263449  0
O  O119  1  0.78471105  0.91859541  0.96390901  1  -1.248597  0  -0.230718  -0.595168  0  2.302812  0
O  O120  1  0.33694428  0.06791032  0.05184915  1  -1.253907  0  -0.222583  -0.563522  0  2.341916  0
O  O121  1  0.46209758  0.99174522  0.96769162  1  -1.428808  0  -0.447386  -0.992213  0  2.170701  0
O  O122  1  0.11860696  0.92921089  0.95440286  1  -1.253169  0  -0.226159  -0.585917  0  2.324313  0
O  O123  1  0.13917710  0.06664090  0.94845546  1  -1.228187  0  -0.224637  -0.572312  0  2.272589  0
O  O124  1  0.98187117  0.00561942  0.03530442  1  -1.417502  0  -0.448082  -0.995029  0  2.162492  0
O  O125  1  0.28645361  0.18757821  0.78723054  1  -1.135612  0  -0.374941  -0.516317  0  2.256247  0
O  O126  1  0.21712736  0.27656552  0.83883549  1  -1.146572  0  -0.401575  -0.547036  0  2.182055  0
O  O127  1  0.28162497  0.25991605  0.69775446  1  -1.12583  0  -0.39617  -0.453776  0  2.318794  0
O  O128  1  0.69323497  0.13239936  0.74165019  1  -1.117083  0  -0.401749  -0.474604  0  2.216142  0
O  O129  1  0.04945806  0.61070114  0.65849679  1  -1.127859  0  -0.355839  -0.443844  0  2.314445  0
O  O130  1  0.94762693  0.20399974  0.64508552  1  -1.112047  0  -0.354463  -0.503528  0  2.254709  0
O  O131  1  0.74938305  0.67237780  0.29255402  1  -1.130264  0  -0.346128  -0.465974  0  2.368779  0
O  O132  1  0.10998695  0.65555009  0.23960055  1  -1.125886  0  -0.392063  -0.526616  0  2.261526  0
O  O133  1  0.42402910  0.62317556  0.22487879  1  -1.12221  0  -0.385732  -0.500388  0  2.231381  0
O  O134  1  0.39504713  0.70149237  0.14156486  1  -1.123725  0  -0.38937  -0.549669  0  2.238995  0
O  O135  1  0.12314920  0.75386391  0.17152239  1  -1.153026  0  -0.39006  -0.522826  0  2.313837  0
O  O136  1  0.09333624  0.76344305  0.30762854  1  -1.137625  0  -0.389136  -0.473803  0  2.367336  0
O  O137  1  0.80472881  0.36937487  0.19088095  1  -1.163769  0  -0.359727  -0.458914  0  2.290893  0
O  O138  1  0.82399276  0.31438106  0.09413055  1  -1.15697  0  -0.347629  -0.447424  0  2.297134  0
O  O139  1  0.75960394  0.20884857  0.02996194  1  -1.145487  0  -0.35692  -0.455346  0  2.269895  0
O  O140  1  0.34046739  0.10795305  0.16089017  1  -1.110446  0  -0.339534  -0.429257  0  2.311632  0
O  O141  1  0.68542017  0.36666715  0.28890634  1  -1.122496  0  -0.335331  -0.408242  0  2.311041  0
O  O142  1  0.03997330  0.17171327  0.19316092  1  -1.15523  0  -0.370884  -0.462035  0  2.308315  0
O  O143  1  0.90954035  0.65681840  0.94595910  1  -1.073022  0  -0.348181  -0.415654  0  2.290742  0
O  O144  1  0.98014965  0.89786767  0.83573759  1  -1.164293  0  -0.366939  -0.455419  0  2.299651  0
F  F145  1  0.86536957  0.59658930  0.85149751  1  -0.602752  0  -0.084525  -0.094837  0  1.380935  0
F  F146  1  0.91683882  0.37443391  0.78092526  1  -0.611299  0  -0.107253  -0.187982  0  1.305637  0
F  F147  1  0.80668929  0.29529796  0.85453423  1  -0.607934  0  -0.115756  -0.14929  0  1.293127  0
F  F148  1  0.64608449  0.23105052  0.67313827  1  -0.6134  0  -0.112792  -0.19493  0  1.354803  0
F  F149  1  0.63101893  0.34489520  0.73561591  1  -0.612678  0  -0.096997  -0.160607  0  1.334758  0
F  F150  1  0.73494759  0.72817802  0.19671411  1  -0.614991  0  -0.078376  -0.131791  0  1.415704  0
F  F151  1  0.47140448  0.87691324  0.28078833  1  -0.613446  0  -0.120875  -0.20128  0  1.302526  0
F  F152  1  0.68590399  0.76905816  0.33475341  1  -0.596266  0  -0.134192  -0.214759  0  1.275757  0
F  F153  1  0.78275799  0.82016702  0.24488982  1  -0.610739  0  -0.088511  -0.166811  0  1.422272  0
F  F154  1  0.17524881  0.85982878  0.23759653  1  -0.61309  0  -0.098433  -0.164643  0  1.355671  0
F  F155  1  0.06208873  0.29383205  0.46823743  1  -0.617835  0  -0.092254  -0.109855  0  1.358092  0
F  F156  1  0.93186860  0.20503270  0.38936158  1  -0.626102  0  -0.103059  -0.125486  0  1.344267  0
F  F157  1  0.93260565  0.77431464  0.00039962  1  -0.642079  0  -0.095997  -0.13088  0  1.328009  0
F  F158  1  0.85973344  0.59473077  0.74512532  1  -0.613787  0  -0.064853  -0.103256  0  1.423155  0
F  F159  1  0.70171463  0.88395586  0.75891385  1  -0.632294  0  -0.078512  -0.138579  0  1.378693  0
