# generated using pymatgen
data_AlH8C14NO5F
_symmetry_space_group_name_H-M   'P 1'
_cell_length_a   6.66765608
_cell_length_b   11.14478085
_cell_length_c   17.72284541
_cell_angle_alpha   84.12521998
_cell_angle_beta   79.80007190
_cell_angle_gamma   72.24713882
_symmetry_Int_Tables_number   1
_chemical_formula_structural   AlH8C14NO5F
_chemical_formula_sum   'Al2 H16 C28 N2 O10 F2'
_cell_volume   1232.79662237
_cell_formula_units_Z   2
loop_
 _symmetry_equiv_pos_site_id
 _symmetry_equiv_pos_as_xyz
  1  'x, y, z'
loop_
 _atom_site_type_symbol
 _atom_site_label
 _atom_site_symmetry_multiplicity
 _atom_site_fract_x
 _atom_site_fract_y
 _atom_site_fract_z
 _atom_site_occupancy
 _atom_site_pbe_bader_charge
 _atom_site_pbe_bader_spin_density
 _atom_site_pbe_cm5_charge
 _atom_site_pbe_ddec_charge
 _atom_site_pbe_ddec_spin_density
 _atom_site_pbe_ddec_sum_bond_order
 _atom_site_pbe_magmom
Al  Al0  1  0.49081754  0.50665742  0.50254814  1  2.504275  0  0.396587  1.645427  0  2.583287  0
Al  Al1  1  0.98951692  0.50791560  0.50243401  1  2.504561  0  0.397115  1.64147  0  2.582857  0
H  H2  1  0.28225876  0.36646109  0.56014567  1  0.622704  0  0.355796  0.432606  0  0.848454  0
H  H3  1  0.68682362  0.65782785  0.46022439  1  0.613568  0  0.344226  0.417025  0  0.884159  0
H  H4  1  0.69966381  0.43158856  0.28012308  1  0.09015  0  0.107676  0.119599  0  0.997817  0
H  H5  1  0.78780144  0.40772183  0.13791325  1  0.06827  0  0.09984  0.103224  0  1.024419  0
H  H6  1  0.03159948  0.53466287  0.26471934  1  0.110357  0  0.110425  0.128282  0  0.998172  0
H  H7  1  0.92009546  0.54638207  0.73680928  1  0.094743  0  0.110201  0.129573  0  0.997965  0
H  H8  1  0.35872378  0.43592707  0.73226859  1  0.089504  0  0.104629  0.115555  0  1.009421  0
H  H9  1  0.30036490  0.41309384  0.87595198  1  0.094304  0  0.098887  0.102115  0  1.023475  0
H  H10  1  0.22332968  0.24611413  0.39416664  1  0.126771  0  0.119874  0.1525  0  1.007741  0
H  H11  1  0.44111593  0.77581977  0.39492280  1  0.091094  0  0.120122  0.146955  0  1.007973  0
H  H12  1  0.75896822  0.88884368  0.55782248  1  0.089754  0  0.113427  0.119333  0  0.982329  0
H  H13  1  0.64164753  0.12488610  0.55212978  1  0.086711  0  0.110701  0.113737  0  0.989287  0
H  H14  1  0.12344262  0.54014650  0.05442585  1  0.464558  0  0.298018  0.290802  0  0.973029  0
H  H15  1  0.93345771  0.57611142  0.13472573  1  0.435279  0  0.311338  0.306066  0  0.940563  0
H  H16  1  0.83456798  0.54919142  0.94706708  1  0.458163  0  0.299108  0.292835  0  0.971024  0
H  H17  1  0.98541574  0.58625185  0.86375730  1  0.446294  0  0.31109  0.305846  0  0.941999  0
C  C18  1  0.85727616  0.28079529  0.49145639  1  1.594879  0  0.273524  0.653497  0  4.081152  0
C  C19  1  0.68192148  0.50184388  0.64158756  1  1.499335  0  0.263315  0.63533  0  4.100488  0
C  C20  1  0.12894929  0.73534315  0.50060904  1  1.59814  0  0.272994  0.65357  0  4.078206  0
C  C21  1  0.30675999  0.49993662  0.36382816  1  1.552384  0  0.264437  0.635018  0  4.102976  0
C  C22  1  0.36015294  0.48586690  0.27943846  1  -0.064222  0  -0.017534  -0.024613  0  4.026234  0
C  C23  1  0.57477032  0.45062181  0.24457962  1  0.004025  0  -0.101055  -0.132392  0  4.027526  0
C  C24  1  0.62263748  0.43841693  0.16590829  1  -0.017041  0  -0.09141  -0.120295  0  4.008019  0
C  C25  1  0.45964808  0.46577367  0.12012813  1  0.103358  0  -0.015625  0.024221  0  4.095463  0
C  C26  1  0.24189594  0.50149012  0.15573925  1  0.430638  0  0.105133  0.270299  0  4.064405  0
C  C27  1  0.19633861  0.50858118  0.23578581  1  -0.007217  0  -0.094541  -0.216272  0  3.934276  0
C  C28  1  0.50686370  0.46266133  0.03938894  1  -0.146626  0  -0.049692  -0.106262  0  4.154434  0
C  C29  1  0.53335345  0.46532341  0.96905190  1  -0.35835  0  -0.051974  -0.114024  0  4.158036  0
C  C30  1  0.57135602  0.47237550  0.88803199  1  0.167968  0  -0.016745  0.02578  0  4.096201  0
C  C31  1  0.74965473  0.51103366  0.84887267  1  0.367651  0  0.103939  0.268215  0  4.071289  0
C  C32  1  0.78343152  0.51899685  0.76835630  1  0.040987  0  -0.097667  -0.220888  0  3.940622  0
C  C33  1  0.64267648  0.49302459  0.72714016  1  -0.000302  0  -0.018908  -0.024225  0  4.023016  0
C  C34  1  0.46583059  0.45619593  0.76562519  1  -0.010641  0  -0.105914  -0.140783  0  4.041061  0
C  C35  1  0.43357208  0.44441303  0.84512249  1  -0.037159  0  -0.093786  -0.122397  0  4.015515  0
C  C36  1  0.93238401  0.14120338  0.48481342  1  -0.076417  0  -0.005136  -0.076159  0  3.9264  0
C  C37  1  0.13507796  0.07745934  0.44310660  1  -0.011641  0  0.002979  0.074938  0  3.956419  0
C  C38  1  0.79763282  0.07359993  0.52272363  1  0.061828  0  -0.08123  -0.094336  0  4.006775  0
C  C39  1  0.26841483  0.14355872  0.39692032  1  0.067386  0  -0.094027  -0.237184  0  3.960618  0
C  C40  1  0.45512101  0.07819787  0.35423233  1  0.535501  0  0.095016  0.1909  0  4.108104  0
C  C41  1  0.06283230  0.87568954  0.48974988  1  -0.083146  0  -0.006186  -0.077563  0  3.930597  0
C  C42  1  0.86288881  0.94142121  0.52567820  1  -0.026166  0  -0.081097  -0.095247  0  4.004375  0
C  C43  1  0.20015501  0.94161388  0.44478540  1  0.067926  0  0.003124  0.077594  0  3.95756  0
C  C44  1  0.39291245  0.87786139  0.39839712  1  0.099804  0  -0.09896  -0.250667  0  3.985948  0
C  C45  1  0.51669716  0.94510213  0.35459465  1  0.369808  0  0.092334  0.187086  0  4.115749  0
N  N46  1  0.08182028  0.52556453  0.11175736  1  -1.258319  0  -0.589226  -0.611807  0  3.354731  0
N  N47  1  0.88731633  0.53590563  0.89034409  1  -1.264451  0  -0.589239  -0.612645  0  3.36093  0
O  O48  1  0.66015346  0.33481711  0.48985958  1  -1.259135  0  -0.230892  -0.586072  0  2.338939  0
O  O49  1  0.86050777  0.51573711  0.60880765  1  -1.259274  0  -0.241364  -0.59723  0  2.340142  0
O  O50  1  0.98674390  0.68098338  0.49998261  1  -1.261292  0  -0.230536  -0.589165  0  2.337494  0
O  O51  1  0.45026926  0.51598634  0.39733173  1  -1.259852  0  -0.240164  -0.598605  0  2.362018  0
O  O52  1  0.32061357  0.68014822  0.51065071  1  -1.264079  0  -0.233224  -0.590292  0  2.341818  0
O  O53  1  0.12156526  0.49652088  0.39626542  1  -1.262367  0  -0.240023  -0.594255  0  2.344571  0
O  O54  1  0.99280973  0.33519166  0.50109873  1  -1.259737  0  -0.232749  -0.593819  0  2.353574  0
O  O55  1  0.53408250  0.49266284  0.60755160  1  -1.266258  0  -0.239773  -0.600787  0  2.354445  0
O  O56  1  0.25343130  0.45002083  0.53517090  1  -1.427835  0  -0.448516  -0.99216  0  2.208877  0
O  O57  1  0.72502974  0.56704638  0.47003171  1  -1.419363  0  -0.450708  -0.986582  0  2.197736  0
F  F58  1  0.58297314  0.13979033  0.30942012  1  -0.62696  0  -0.095499  -0.123421  0  1.346615  0
F  F59  1  0.69971926  0.88505431  0.30953298  1  -0.624827  0  -0.102455  -0.129253  0  1.32319  0
