# generated using pymatgen
data_Al6H84C84N16O43
_symmetry_space_group_name_H-M   'P 1'
_cell_length_a   13.30167807
_cell_length_b   13.57541558
_cell_length_c   28.14652308
_cell_angle_alpha   90.87051685
_cell_angle_beta   89.60260401
_cell_angle_gamma   118.44853961
_symmetry_Int_Tables_number   1
_chemical_formula_structural   Al6H84C84N16O43
_chemical_formula_sum   'Al6 H84 C84 N16 O43'
_cell_volume   4468.31963398
_cell_formula_units_Z   1
loop_
 _symmetry_equiv_pos_site_id
 _symmetry_equiv_pos_as_xyz
  1  'x, y, z'
loop_
 _atom_site_type_symbol
 _atom_site_label
 _atom_site_symmetry_multiplicity
 _atom_site_fract_x
 _atom_site_fract_y
 _atom_site_fract_z
 _atom_site_occupancy
 _atom_site_pbe_bader_charge
 _atom_site_pbe_bader_spin_density
 _atom_site_pbe_cm5_charge
 _atom_site_pbe_ddec_charge
 _atom_site_pbe_ddec_spin_density
 _atom_site_pbe_ddec_sum_bond_order
 _atom_site_pbe_magmom
Al  Al0  1  0.41411167  0.59053634  0.49858288  1  2.492575  0  0.401329  1.684063  0  2.54725  0
Al  Al1  1  0.64793378  0.57712430  0.50115574  1  2.475055  0  0.505625  1.656607  0  2.517302  0
Al  Al2  1  0.42848456  0.36131982  0.49968112  1  2.478678  0  0.502663  1.658176  0  2.523907  0
Al  Al3  1  0.91070553  0.06697554  0.00093475  1  2.496851  0  0.39584  1.684113  0  2.559845  0
Al  Al4  1  0.90307645  0.29976297  0.00058134  1  2.482516  0  0.508518  1.658067  0  2.514729  0
Al  Al5  1  0.67924700  0.08849667  0.00145431  1  2.481542  0  0.505338  1.660882  0  2.51388  0
H  H6  1  0.79060756  0.50875210  0.78545427  1  0.091866  0  0.110099  0.11837  0  0.969767  0
H  H7  1  0.85008192  0.92391249  0.71073536  1  0.080021  0  0.104132  0.122686  0  1.006274  0
H  H8  1  0.58219787  0.45724119  0.73836569  1  0.07191  0  0.103911  0.09365  0  1.053922  0
H  H9  1  0.47789983  0.28030242  0.28511417  1  0.072909  0  0.103584  0.054545  0  1.009782  0
H  H10  1  0.72595793  0.23563951  0.30706774  1  0.064639  0  0.098247  0.111065  0  0.984439  0
H  H11  1  0.58055821  0.17318734  0.29124025  1  0.025682  0  0.095779  0.098612  0  0.980143  0
H  H12  1  0.64897788  0.16041594  0.21488874  1  0.036596  0  0.09519  0.094491  0  1.020821  0
H  H13  1  0.78860673  0.26660083  0.22778918  1  0.046655  0  0.09582  0.095239  0  1.000567  0
H  H14  1  0.84520999  0.44638285  0.28959033  1  0.038762  0  0.09814  0.051589  0  0.980712  0
H  H15  1  0.46937769  0.25862921  0.78910451  1  0.112343  0  0.099746  0.100944  0  1.024059  0
H  H16  1  0.85614269  0.45390532  0.20964739  1  0.044539  0  0.108591  0.058963  0  0.950806  0
H  H17  1  0.99626009  0.16931454  0.77821571  1  0.089577  0  0.10895  0.058537  0  1.018274  0
H  H18  1  0.20617260  0.48175533  0.21078647  1  0.060537  0  0.11528  0.074043  0  0.952789  0
H  H19  1  0.98017139  0.21534637  0.30481881  1  0.030334  0  0.104588  0.04602  0  0.962338  0
H  H20  1  0.01112817  0.36672985  0.22597929  1  0.05366  0  0.105498  0.115912  0  0.978795  0
H  H21  1  0.94650897  0.21839393  0.22435490  1  0.074007  0  0.099584  0.110952  0  1.0047  0
H  H22  1  0.52018203  0.14553893  0.71398753  1  0.064175  0  0.097319  0.084384  0  0.998473  0
H  H23  1  0.10178422  0.14033078  0.29406159  1  0.035333  0  0.09985  0.039086  0  0.974298  0
H  H24  1  0.23661513  0.22532822  0.20723474  1  0.068679  0  0.110916  0.072362  0  0.963171  0
H  H25  1  0.33815034  0.44018430  0.28203432  1  0.096885  0  0.117756  0.084693  0  0.96608  0
H  H26  1  0.80752431  0.83571752  0.20038163  1  0.068751  0  0.108595  0.060478  0  0.95295  0
H  H27  1  0.82520039  0.99928013  0.31208533  1  0.043211  0  0.097646  0.034843  0  0.979348  0
H  H28  1  0.30583844  0.52065061  0.72126597  1  0.030411  0  0.096572  0.107088  0  0.994095  0
H  H29  1  0.84884695  0.01274587  0.23037821  1  0.071629  0  0.090719  0.091686  0  1.052838  0
H  H30  1  0.72542699  0.19119372  0.76201240  1  0.097707  0  0.097009  0.0925  0  1.090295  0
H  H31  1  0.74785212  0.06185347  0.23222192  1  0.051777  0  0.103661  0.121668  0  0.991631  0
H  H32  1  0.69249056  0.69406391  0.27797441  1  0.103758  0  0.122353  0.086618  0  0.981396  0
H  H33  1  0.27211566  0.23319981  0.71250988  1  0.044984  0  0.101537  0.116587  0  0.978975  0
H  H34  1  0.01879709  0.29704954  0.69499974  1  0.035918  0  0.09939  0.044878  0  0.98042  0
H  H35  1  0.94931720  0.10150324  0.69320378  1  0.39334  0  0.270917  0.257466  0  1.022907  0
H  H36  1  0.06816977  0.15281551  0.66225469  1  0.411551  0  0.284033  0.271702  0  0.968058  0
H  H37  1  0.87904037  0.24298913  0.77195188  1  0.428423  0  0.275106  0.262046  0  1.026905  0
H  H38  1  0.96534110  0.32837774  0.81164890  1  0.379621  0  0.285271  0.271814  0  0.969566  0
H  H39  1  0.16014532  0.48415065  0.71446240  1  0.036265  0  0.097766  0.106412  0  0.981338  0
H  H40  1  0.36713163  0.48967913  0.80690290  1  0.412275  0  0.265296  0.249542  0  1.041738  0
H  H41  1  0.33697509  0.59454753  0.80656835  1  0.406949  0  0.271103  0.274965  0  1.013742  0
H  H42  1  0.29376662  0.29232751  0.84639905  1  0.594262  0  0.326678  0.366283  0  0.883309  0
H  H43  1  0.48673866  0.84493791  0.79126583  1  0.639876  0  0.286477  0.330064  0  1.020912  0
H  H44  1  0.92604414  0.40324209  0.72386651  1  0.448675  0  0.270552  0.267007  0  1.042892  0
H  H45  1  0.85974883  0.38199792  0.67097242  1  0.407206  0  0.285731  0.276647  0  0.974655  0
H  H46  1  0.71019073  0.00963853  0.65016969  1  0.428058  0  0.290892  0.278663  0  0.962255  0
H  H47  1  0.74562802  0.09679878  0.69649198  1  0.415807  0  0.284252  0.270421  0  0.985557  0
H  H48  1  0.56300767  0.02754161  0.76303745  1  0.41612  0  0.297457  0.288778  0  0.960727  0
H  H49  1  0.60050942  0.01784225  0.81805677  1  0.427358  0  0.307378  0.308365  0  0.918841  0
H  H50  1  0.35889801  0.37192650  0.73375822  1  0.045734  0  0.100655  0.114305  0  0.991143  0
H  H51  1  0.83764448  0.03565685  0.78502671  1  0.617337  0  0.285592  0.316698  0  1.03199  0
H  H52  1  0.69957685  0.70283518  0.81173698  1  0.615483  0  0.298922  0.34723  0  0.988282  0
H  H53  1  0.64639064  0.62497830  0.73528960  1  0.38884  0  0.281618  0.259182  0  1.002606  0
H  H54  1  0.50661901  0.55424564  0.73380805  1  0.384899  0  0.278678  0.253685  0  1.007853  0
H  H55  1  0.52448449  0.67108794  0.84189470  1  0.613972  0  0.341949  0.386543  0  0.850439  0
H  H56  1  0.95548755  0.95544997  0.78230836  1  0.431272  0  0.306564  0.308488  0  0.921168  0
H  H57  1  0.88981920  0.94288987  0.83362203  1  0.446702  0  0.314019  0.319416  0  0.899512  0
H  H58  1  0.40668676  0.17396379  0.22970788  1  0.426858  0  0.289195  0.294072  0  0.977578  0
H  H59  1  0.49353981  0.15248942  0.19192178  1  0.426549  0  0.292947  0.301201  0  0.965839  0
H  H60  1  0.82679172  0.62516195  0.27002541  1  0.456335  0  0.287946  0.282233  0  0.988775  0
H  H61  1  0.14096845  0.47311084  0.79508253  1  0.057537  0  0.112268  0.067261  0  0.950823  0
H  H62  1  0.80397963  0.57974624  0.32589593  1  0.42321  0  0.296907  0.284566  0  0.942439  0
H  H63  1  0.69116199  0.52366802  0.19455675  1  0.628371  0  0.301276  0.345654  0  0.969258  0
H  H64  1  0.62758464  0.50968546  0.28398574  1  0.611473  0  0.284178  0.307139  0  1.033346  0
H  H65  1  0.51163593  0.36294743  0.15791940  1  0.629295  0  0.327623  0.364152  0  0.883901  0
H  H66  1  0.16905611  0.50703810  0.29726234  1  0.590257  0  0.303577  0.336676  0  0.966767  0
H  H67  1  0.02491823  0.38106363  0.34419143  1  0.588479  0  0.332317  0.363987  0  0.878491  0
H  H68  1  0.29460311  0.23634092  0.32186328  1  0.607729  0  0.319364  0.353787  0  0.902937  0
H  H69  1  0.38468840  0.41464558  0.20635947  1  0.43546  0  0.273949  0.269828  0  1.018089  0
H  H70  1  0.38219304  0.52697909  0.18774581  1  0.386863  0  0.282676  0.281384  0  0.973041  0
H  H71  1  0.04494669  0.09636200  0.17468438  1  0.385269  0  0.287661  0.277665  0  0.967651  0
H  H72  1  0.48734354  0.71012547  0.71281081  1  0.08847  0  0.115901  0.083433  0  0.959195  0
H  H73  1  0.08583633  0.03828038  0.21532618  1  0.39369  0  0.290546  0.276879  0  0.95285  0
H  H74  1  0.90829637  0.90454360  0.27277885  1  0.407662  0  0.275323  0.253544  0  1.016459  0
H  H75  1  0.86718809  0.81969179  0.31846209  1  0.373991  0  0.286134  0.275073  0  0.962403  0
H  H76  1  0.60803067  0.96324809  0.32617409  1  0.635175  0  0.302044  0.34273  0  0.972834  0
H  H77  1  0.52192010  0.63438055  0.25690276  1  0.43766  0  0.2862  0.28742  0  0.990818  0
H  H78  1  0.40798136  0.63648463  0.28001990  1  0.425075  0  0.282048  0.291289  0  1.00717  0
H  H79  1  0.46597555  0.77382446  0.34071082  1  0.614582  0  0.339584  0.390252  0  0.849894  0
H  H80  1  0.46393041  0.79195189  0.17385367  1  0.603281  0  0.322746  0.359798  0  0.893737  0
H  H81  1  0.62784198  0.70041244  0.16609573  1  0.603661  0  0.324631  0.353952  0  0.894081  0
H  H82  1  0.57502485  0.99323811  0.25508230  1  0.419597  0  0.279147  0.271242  0  1.015932  0
H  H83  1  0.56493358  0.90667026  0.70549280  1  0.037039  0  0.10451  0.054942  0  0.973659  0
H  H84  1  0.44268634  0.90013266  0.24461984  1  0.411339  0  0.290403  0.293831  0  0.941294  0
H  H85  1  0.11556976  0.11100839  0.75633470  1  0.419668  0  0.265432  0.252523  0  1.051096  0
H  H86  1  0.21865398  0.11419895  0.79012337  1  0.394699  0  0.283061  0.278778  0  0.9648  0
H  H87  1  0.80414653  0.77827072  0.71394790  1  0.080141  0  0.111964  0.141458  0  0.955418  0
H  H88  1  0.32094584  0.68903652  0.52642548  1  0.581537  0  0.293444  0.384759  0  0.920367  0
H  H89  1  0.01422132  0.97986742  0.02866509  1  0.579398  0  0.292786  0.385018  0  0.919968  0
C  C90  1  0.61645454  0.71380018  0.56641919  1  1.668042  0  0.277471  0.721398  0  4.150516  0
C  C91  1  0.63467329  0.35480907  0.65345638  1  -0.472521  0  -0.011247  0.006999  0  4.059693  0
C  C92  1  0.27078597  0.30281200  0.73227543  1  -0.043614  0  -0.154693  -0.304862  0  3.792291  0
C  C93  1  0.60330788  0.39803456  0.56538593  1  1.605119  0  0.282706  0.724255  0  4.152841  0
C  C94  1  0.06605517  0.26074649  0.71364215  1  0.319737  0  0.010697  0.100976  0  3.774172  0
C  C95  1  0.03632942  0.25725087  0.76740545  1  0.285426  0  0.009053  0.113054  0  3.766371  0
C  C96  1  0.08770686  0.28788612  0.88830769  1  -0.131229  0  -0.044262  -0.216914  0  3.953132  0
C  C97  1  0.19531488  0.34409879  0.70657376  1  0.131893  0  0.002788  0.137488  0  3.898081  0
C  C98  1  0.22605206  0.26516067  0.78312336  1  0.813421  0  0.163873  0.455523  0  3.789123  0
C  C99  1  0.14766379  0.31914159  0.79711827  1  0.079229  0  0.00351  -0.040714  0  3.828075  0
C  C100  1  0.20363655  0.44566769  0.78479776  1  0.401223  0  0.008598  0.177479  0  3.828172  0
C  C101  1  0.62738013  0.37077776  0.61133898  1  0.196307  0  -0.047522  -0.223261  0  3.96535  0
C  C102  1  0.21831553  0.45674608  0.72984950  1  -0.050256  0  -0.156649  -0.269411  0  3.833783  0
C  C103  1  0.11839530  0.30287752  0.84705954  1  -0.115829  0  -0.013158  0.000238  0  4.07846  0
C  C104  1  0.22356958  0.35834689  0.65647332  1  -0.324229  0  -0.015017  -0.014573  0  4.017492  0
C  C105  1  0.29926829  0.40161188  0.56805776  1  1.642907  0  0.275828  0.721761  0  4.156453  0
C  C106  1  0.25015322  0.37284844  0.61475946  1  0.048298  0  -0.050816  -0.222181  0  3.965747  0
C  C107  1  0.56749564  0.72116317  0.72864975  1  0.321254  0  0.006697  0.019989  0  3.816873  0
C  C108  1  0.65481570  0.92993453  0.71366896  1  0.312853  0  0.007757  0.029059  0  3.810736  0
C  C109  1  0.67486168  0.96295360  0.76796863  1  0.855051  0  0.168077  0.415063  0  3.778662  0
C  C110  1  0.68106858  0.90359515  0.88843000  1  0.193138  0  -0.035563  -0.197673  0  3.927855  0
C  C111  1  0.66806493  0.82323774  0.70420418  1  0.143038  0  0.006285  0.107763  0  3.859532  0
C  C112  1  0.69460287  0.25140680  0.75590162  1  -0.092879  0  -0.087274  -0.18208  0  3.627263  0
C  C113  1  0.56100300  0.75146742  0.78238300  1  0.975194  0  0.154633  0.428414  0  3.831543  0
C  C114  1  0.67340557  0.86170656  0.79567369  1  0.102044  0  -0.01009  -0.182305  0  3.84815  0
C  C115  1  0.78113816  0.84864721  0.77991682  1  0.794646  0  0.164293  0.47055  0  3.786099  0
C  C116  1  0.78384862  0.84451988  0.72502866  1  -0.032988  0  -0.158436  -0.323527  0  3.78791  0
C  C117  1  0.61572829  0.70874625  0.43388898  1  1.671333  0  0.278332  0.718673  0  4.151648  0
C  C118  1  0.67639913  0.88326086  0.84610557  1  -0.502185  0  -0.027048  -0.005609  0  4.121683  0
C  C119  1  0.65998191  0.79788778  0.65361705  1  -0.479116  0  -0.010898  0.008558  0  3.99345  0
C  C120  1  0.64592499  0.77023787  0.61192330  1  0.21047  0  -0.045295  -0.216067  0  3.939487  0
C  C121  1  0.55511046  0.34996881  0.27002214  1  0.514964  0  0.0057  0.079745  0  3.798241  0
C  C122  1  0.66500447  0.24421679  0.28372967  1  -0.02176  0  -0.155575  -0.194056  0  3.88662  0
C  C123  1  0.66710852  0.31419415  0.79794782  1  0.101534  0  0.005371  0.124477  0  3.798846  0
C  C124  1  0.69781304  0.24389932  0.23121521  1  -0.019516  0  -0.154239  -0.188973  0  3.880946  0
C  C125  1  0.70005534  0.29951219  0.11101633  1  0.207362  0  -0.045845  -0.224103  0  3.935043  0
C  C126  1  0.66109730  0.35379273  0.29537785  1  0.116559  0  -0.004604  0.049012  0  3.903951  0
C  C127  1  0.55734006  0.31839868  0.21570456  1  0.815464  0  0.162897  0.386723  0  3.795928  0
C  C128  1  0.67862909  0.33140418  0.20339271  1  0.128418  0  -0.005011  -0.012773  0  3.889877  0
C  C129  1  0.61180444  0.40419745  0.43464643  1  1.657146  0  0.283444  0.733727  0  4.141757  0
C  C130  1  0.77407796  0.44908130  0.22022805  1  0.495272  0  0.010198  0.145677  0  3.807103  0
C  C131  1  0.77205823  0.45506044  0.27616991  1  0.341601  0  0.005512  0.080046  0  3.774511  0
C  C132  1  0.68899617  0.31569106  0.15289905  1  -0.451104  0  -0.002743  0.029158  0  4.011587  0
C  C133  1  0.64961575  0.36589597  0.34606187  1  -0.459414  0  0.001785  0.035892  0  3.989332  0
C  C134  1  0.58066354  0.22534511  0.73062836  1  -0.055038  0  -0.079663  -0.087519  0  3.689778  0
C  C135  1  0.63873486  0.37824761  0.38835912  1  0.180088  0  -0.052308  -0.239869  0  3.946467  0
C  C136  1  0.25200285  0.42865810  0.27477925  1  0.441473  0  0.004098  0.128398  0  3.771356  0
C  C137  1  0.04024004  0.29674188  0.28935819  1  0.483903  0  0.008881  0.201569  0  3.809054  0
C  C138  1  0.02318885  0.29474960  0.23539589  1  -0.062901  0  -0.154284  -0.263426  0  3.830997  0
C  C139  1  0.07778710  0.28675593  0.11579222  1  -0.358922  0  -0.045809  -0.221074  0  3.954196  0
C  C140  1  0.16394648  0.31874528  0.29953499  1  0.103476  0  -0.014789  -0.042281  0  3.934167  0
C  C141  1  0.28763921  0.38425693  0.43470048  1  1.683263  0  0.28064  0.711405  0  4.15933  0
C  C142  1  0.23277890  0.41913067  0.21998016  1  0.357577  0  0.00663  0.081117  0  3.843726  0
C  C143  1  0.12845816  0.30295327  0.20788706  1  0.129539  0  0.00541  0.07881  0  3.869207  0
C  C144  1  0.15458186  0.20845916  0.22377491  1  0.297454  0  0.006251  0.090767  0  3.79099  0
C  C145  1  0.64458511  0.33835024  0.70215615  1  0.14564  0  0.005122  0.053761  0  3.797394  0
C  C146  1  0.17202893  0.21610149  0.27813942  1  0.479351  0  0.009552  0.149697  0  3.81535  0
C  C147  1  0.10427785  0.29491154  0.15745361  1  0.097281  0  -0.007809  0.009321  0  4.017107  0
C  C148  1  0.19058987  0.33039345  0.34976737  1  -0.07153  0  -0.026852  -0.047813  0  4.100823  0
C  C149  1  0.22551204  0.34841674  0.39048980  1  -0.227339  0  -0.038722  -0.195929  0  3.954758  0
C  C150  1  0.73805486  0.78409121  0.27089313  1  0.309163  0  0.00901  0.104086  0  3.801079  0
C  C151  1  0.74154363  0.96624893  0.29433563  1  0.471761  0  0.00093  0.202501  0  3.835343  0
C  C152  1  0.76035364  0.98984196  0.24056107  1  -0.07173  0  -0.162092  -0.26439  0  3.82433  0
C  C153  1  0.76044663  0.36649827  0.72856514  1  0.498467  0  0.100447  0.27412  0  3.727728  0
C  C154  1  0.68746579  0.92563506  0.11886280  1  0.201875  0  -0.048279  -0.219733  0  3.958741  0
C  C155  1  0.67633850  0.83758462  0.30086108  1  0.113187  0  -0.010904  -0.070828  0  3.877606  0
C  C156  1  0.55179420  0.28717469  0.77140583  1  -0.034189  0  -0.07054  -0.073415  0  3.60643  0
C  C157  1  0.72283154  0.79887870  0.21770794  1  0.479111  0  0.01266  0.142538  0  3.790936  0
C  C158  1  0.67703677  0.88496458  0.21142873  1  0.123545  0  -0.00851  0.005785  0  3.885106  0
C  C159  1  0.55228518  0.84061166  0.23139506  1  0.812506  0  0.158041  0.33715  0  3.797782  0
C  C160  1  0.54868098  0.78754028  0.28194817  1  0.851287  0  0.165755  0.344846  0  3.789533  0
C  C161  1  0.68067822  0.90950674  0.16142986  1  -0.509014  0  -0.020919  -0.014406  0  4.07085  0
C  C162  1  0.66979923  0.80535578  0.35004536  1  -0.461324  0  -0.020389  -0.00916  0  4.087169  0
C  C163  1  0.65301804  0.76963814  0.39029449  1  0.160947  0  -0.045764  -0.216642  0  3.957999  0
C  C164  1  0.03341900  0.25860407  0.93402233  1  1.632455  0  0.278835  0.718661  0  4.153029  0
C  C165  1  0.73056163  0.42769969  0.76976878  1  -0.028922  0  -0.069648  -0.135392  0  3.572646  0
C  C166  1  0.72571031  0.26089789  0.93402816  1  1.661819  0  0.279778  0.722113  0  4.155904  0
C  C167  1  0.61605088  0.39982272  0.74447573  1  -0.025185  0  -0.063596  -0.052101  0  3.610359  0
C  C168  1  0.70748547  0.95151694  0.93561234  1  1.682002  0  0.281665  0.710186  0  4.169721  0
C  C169  1  0.03115757  0.26319228  0.06863096  1  1.656329  0  0.277986  0.725915  0  4.150666  0
C  C170  1  0.72358380  0.26932543  0.06487013  1  1.614475  0  0.286079  0.732006  0  4.140893  0
C  C171  1  0.71381511  0.96519627  0.07087509  1  1.657211  0  0.27583  0.719963  0  4.159729  0
C  C172  1  0.69840575  0.28504513  0.88794514  1  0.171225  0  -0.048872  -0.221474  0  3.969296  0
C  C173  1  0.68204036  0.29858466  0.84647054  1  -0.465918  0  -0.013046  -0.006544  0  4.044847  0
N  N174  1  0.03667380  0.14790901  0.69591182  1  -1.122263  0  -0.627274  -0.635442  0  3.215067  0
N  N175  1  0.77596426  0.56036260  0.29168696  1  -1.156939  0  -0.614455  -0.617805  0  3.293266  0
N  N176  1  0.33306506  0.44256157  0.19149249  1  -1.113593  0  -0.644748  -0.652743  0  3.208883  0
N  N177  1  0.06053733  0.09764685  0.21034758  1  -1.084691  0  -0.623458  -0.638907  0  3.193189  0
N  N178  1  0.85810500  0.82324722  0.28257544  1  -1.099961  0  -0.631893  -0.633697  0  3.194473  0
N  N179  1  0.49450624  0.66762018  0.28363950  1  -1.125599  0  -0.644418  -0.697128  0  3.215738  0
N  N180  1  0.52388114  0.93199071  0.23138414  1  -1.116616  0  -0.6454  -0.704687  0  3.17622  0
N  N181  1  0.16044952  0.14284728  0.78749059  1  -1.100487  0  -0.644571  -0.719251  0  3.172601  0
N  N182  1  0.96059331  0.30650605  0.77640982  1  -1.119299  0  -0.629619  -0.632825  0  3.196351  0
N  N183  1  0.30468978  0.51130020  0.81341027  1  -1.147735  0  -0.661723  -0.674369  0  3.243149  0
N  N184  1  0.86610518  0.41329008  0.70464194  1  -1.216337  0  -0.623721  -0.660501  0  3.267046  0
N  N185  1  0.73692554  0.02178654  0.68469374  1  -1.145432  0  -0.624575  -0.620401  0  3.251258  0
N  N186  1  0.57918624  0.97851572  0.78552775  1  -1.119361  0  -0.606427  -0.660696  0  3.217599  0
N  N187  1  0.57568313  0.62016247  0.71901382  1  -1.077515  0  -0.640817  -0.610832  0  3.238448  0
N  N188  1  0.88244366  0.94783009  0.79765155  1  -1.138349  0  -0.600268  -0.655405  0  3.21756  0
N  N189  1  0.46805823  0.20775629  0.20426137  1  -1.176607  0  -0.63603  -0.71926  0  3.229407  0
O  O190  1  0.32445388  0.49775741  0.55298931  1  -1.225993  0  -0.212839  -0.565255  0  2.286181  0
O  O191  1  0.65198646  0.17032353  0.95366671  1  -1.251352  0  -0.232048  -0.5979  0  2.250602  0
O  O192  1  0.63434121  0.97665129  0.95487675  1  -1.248384  0  -0.239557  -0.59935  0  2.232792  0
O  O193  1  0.52221097  0.69396753  0.54805237  1  -1.228126  0  -0.213192  -0.571169  0  2.282683  0
O  O194  1  0.80992592  0.98338855  0.05494480  1  -1.212807  0  -0.21099  -0.561912  0  2.293009  0
O  O195  1  0.01253115  0.17068867  0.04991443  1  -1.238525  0  -0.215795  -0.581017  0  2.298318  0
O  O196  1  0.00788072  0.33620891  0.05004102  1  -1.249628  0  -0.239946  -0.601131  0  2.225739  0
O  O197  1  0.81847554  0.33644915  0.04533410  1  -1.245541  0  -0.223861  -0.584874  0  2.244936  0
O  O198  1  0.65020348  0.17420993  0.04762607  1  -1.24327  0  -0.228652  -0.594259  0  2.245284  0
O  O199  1  0.63878058  0.98261892  0.04908707  1  -1.262697  0  -0.244841  -0.608052  0  2.229563  0
O  O200  1  0.82971049  0.15203352  0.00105047  1  -1.612854  0  -0.391666  -1.274495  0  2.293685  0
O  O201  1  0.68286827  0.49841962  0.45348413  1  -1.249733  0  -0.231082  -0.595388  0  2.239456  0
O  O202  1  0.68847412  0.68416171  0.54925724  1  -1.25643  0  -0.240132  -0.599674  0  2.227379  0
O  O203  1  0.67513931  0.49153689  0.54743729  1  -1.245481  0  -0.226739  -0.587889  0  2.247455  0
O  O204  1  0.50779653  0.32794159  0.54637159  1  -1.248455  0  -0.231306  -0.595661  0  2.248746  0
O  O205  1  0.31672975  0.32691465  0.54613210  1  -1.258152  0  -0.245828  -0.61243  0  2.239031  0
O  O206  1  0.31137610  0.47999800  0.45066269  1  -1.215507  0  -0.197225  -0.526954  0  2.268001  0
O  O207  1  0.51354780  0.67764930  0.44622126  1  -1.218395  0  -0.204718  -0.542073  0  2.269745  0
O  O208  1  0.68858186  0.68835124  0.45584406  1  -1.256409  0  -0.245647  -0.613746  0  2.240241  0
O  O209  1  0.32280046  0.30464696  0.81374806  1  -1.11488  0  -0.380687  -0.523346  0  2.190258  0
O  O210  1  0.46280503  0.76152524  0.79134667  1  -1.187504  0  -0.399729  -0.556091  0  2.251909  0
O  O211  1  0.77840190  0.06130151  0.77647074  1  -1.171673  0  -0.394988  -0.550258  0  2.300567  0
O  O212  1  0.51620845  0.33405354  0.45277089  1  -1.251836  0  -0.228598  -0.593111  0  2.250934  0
O  O213  1  0.77706022  0.75003099  0.79882310  1  -1.124472  0  -0.41598  -0.565229  0  2.14996  0
O  O214  1  0.55381289  0.66174873  0.81108644  1  -1.111593  0  -0.37193  -0.526177  0  2.25776  0
O  O215  1  0.77133716  0.54008896  0.19800485  1  -1.132821  0  -0.408295  -0.488899  0  2.230763  0
O  O216  1  0.54739123  0.44855335  0.27788216  1  -1.139676  0  -0.406924  -0.47467  0  2.289462  0
O  O217  1  0.54043303  0.39926137  0.18876218  1  -1.12296  0  -0.375319  -0.520953  0  2.247815  0
O  O218  1  0.24953089  0.52484120  0.29458183  1  -1.106481  0  -0.401141  -0.491743  0  2.258056  0
O  O219  1  0.01782650  0.38258806  0.30969448  1  -1.097778  0  -0.386333  -0.498021  0  2.19734  0
O  O220  1  0.27926440  0.22051996  0.28788133  1  -1.124542  0  -0.396258  -0.496928  0  2.227854  0
O  O221  1  0.68405671  0.02184408  0.31599576  1  -1.154053  0  -0.414406  -0.512665  0  2.190797  0
O  O222  1  0.48588012  0.82317946  0.31321046  1  -1.117552  0  -0.377475  -0.524164  0  2.205652  0
O  O223  1  0.31736411  0.31501144  0.45275091  1  -1.252482  0  -0.242576  -0.605345  0  2.235864  0
O  O224  1  0.46985938  0.75378510  0.20206504  1  -1.123676  0  -0.389088  -0.523387  0  2.226059  0
O  O225  1  0.65048579  0.69069977  0.19784431  1  -1.109843  0  -0.384266  -0.472037  0  2.245263  0
O  O226  1  0.49726394  0.50895949  0.49987813  1  -1.612653  0  -0.39032  -1.270844  0  2.294616  0
O  O227  1  0.80208246  0.96932375  0.95252166  1  -1.20679  0  -0.195426  -0.523642  0  2.282717  0
O  O228  1  0.00256175  0.16069574  0.94839309  1  -1.218325  0  -0.205313  -0.548081  0  2.284506  0
O  O229  1  0.01691593  0.33435642  0.95568010  1  -1.252167  0  -0.242087  -0.607853  0  2.23031  0
O  O230  1  0.82366436  0.32908529  0.95139952  1  -1.251738  0  -0.227428  -0.588308  0  2.244609  0
O  O231  1  0.33591282  0.66377452  0.49622071  1  -1.36419  0  -0.577665  -0.9965  0  1.795536  0
O  O232  1  0.97954052  0.98470125  0.99935982  1  -1.363347  0  -0.577101  -0.996545  0  1.793288  0
