# generated using pymatgen
data_ZnH14C22NO4
_symmetry_space_group_name_H-M   'P 1'
_cell_length_a   13.18225987
_cell_length_b   13.20117038
_cell_length_c   15.60918158
_cell_angle_alpha   82.50303938
_cell_angle_beta   68.13999065
_cell_angle_gamma   83.95980408
_symmetry_Int_Tables_number   1
_chemical_formula_structural   ZnH14C22NO4
_chemical_formula_sum   'Zn4 H56 C88 N4 O16'
_cell_volume   2494.72468495
_cell_formula_units_Z   4
loop_
 _symmetry_equiv_pos_site_id
 _symmetry_equiv_pos_as_xyz
  1  'x, y, z'
loop_
 _atom_site_type_symbol
 _atom_site_label
 _atom_site_symmetry_multiplicity
 _atom_site_fract_x
 _atom_site_fract_y
 _atom_site_fract_z
 _atom_site_occupancy
 _atom_site_pbe_bader_charge
 _atom_site_pbe_bader_spin_density
 _atom_site_pbe_cm5_charge
 _atom_site_pbe_ddec_charge
 _atom_site_pbe_ddec_spin_density
 _atom_site_pbe_ddec_sum_bond_order
 _atom_site_pbe_magmom
Zn  Zn0  1  0.92386558  0.70077611  0.82861453  1  1.292263  0  0.668541  0.831082  0  2.395729  0
Zn  Zn1  1  0.03289056  0.69826894  0.62983724  1  1.294066  0  0.669681  0.827249  0  2.407522  0
Zn  Zn2  1  0.07613467  0.29922358  0.17138628  1  1.292298  0  0.668532  0.83109  0  2.395739  0
Zn  Zn3  1  0.96711050  0.30173075  0.37016268  1  1.294037  0  0.669674  0.827243  0  2.40751  0
H  H4  1  0.71360293  0.78018900  0.98679788  1  0.103564  0  0.125856  0.098872  0  0.962676  0
H  H5  1  0.62666297  0.73359601  0.15675818  1  0.095492  0  0.107353  0.109597  0  1.0045  0
H  H6  1  0.90846298  0.52482532  0.13753445  1  0.111074  0  0.108537  0.122958  0  1.034642  0
H  H7  1  0.98719728  0.58729041  0.96975055  1  0.105176  0  0.119682  0.090655  0  1.028291  0
H  H8  1  0.76814609  0.53380430  0.28614734  1  0.095003  0  0.106915  0.115321  0  1.006494  0
H  H9  1  0.54637332  0.63376656  0.28481320  1  0.063194  0  0.098262  0.089124  0  1.02066  0
H  H10  1  0.39151321  0.60393232  0.41655479  1  0.042224  0  0.093556  0.089068  0  1.054283  0
H  H11  1  0.70252862  0.47197957  0.42466214  1  0.073525  0  0.10635  0.113895  0  1.00419  0
H  H12  1  0.17739613  0.83037830  0.46804875  1  0.107533  0  0.127207  0.102355  0  0.975958  0
H  H13  1  0.30688301  0.80718041  0.30613412  1  0.063086  0  0.111764  0.119665  0  0.983524  0
H  H14  1  0.20180451  0.49831520  0.34870648  1  0.091556  0  0.110342  0.122481  0  1.015248  0
H  H15  1  0.07921622  0.53507148  0.50712700  1  0.09789  0  0.120285  0.094352  0  1.015803  0
H  H16  1  0.40796996  0.68703312  0.18921502  1  0.030378  0  0.099162  0.095301  0  1.014521  0
H  H17  1  0.26940636  0.50851482  0.19968199  1  0.085501  0  0.107787  0.110781  0  1.007045  0
H  H18  1  0.55147614  0.61314786  0.09038079  1  0.053213  0  0.093321  0.084504  0  1.060717  0
H  H19  1  0.31263721  0.43640408  0.05875968  1  0.078897  0  0.105262  0.113534  0  1.010601  0
H  H20  1  0.91228110  0.01961644  0.84115468  1  0.102404  0  0.104913  0.113782  0  1.003124  0
H  H21  1  0.09562342  0.21086387  0.53197236  1  0.088476  0  0.100666  0.1083  0  1.022461  0
H  H22  1  0.07580714  0.02388927  0.54568180  1  0.088875  0  0.104848  0.112078  0  1.003908  0
H  H23  1  0.87440151  0.18253629  0.91576847  1  0.077169  0  0.102988  0.105758  0  0.992223  0
H  H24  1  0.88700784  0.37152011  0.90118914  1  0.064001  0  0.101205  0.107281  0  1.010743  0
H  H25  1  0.06563458  0.37218454  0.60792250  1  0.120498  0  0.10279  0.106532  0  1.016124  0
H  H26  1  0.74479932  0.71032847  0.55473461  1  0.074614  0  0.100118  0.103358  0  1.023267  0
H  H27  1  0.56320210  0.70902530  0.54041311  1  0.05956  0  0.100885  0.104399  0  1.00171  0
H  H28  1  0.59072146  0.70011431  0.85134075  1  0.070615  0  0.099639  0.103354  0  1.035227  0
H  H29  1  0.36022579  0.70541999  0.61538592  1  0.086991  0  0.102738  0.108839  0  1.020928  0
H  H30  1  0.20822837  0.67653657  0.91248060  1  0.068252  0  0.1009  0.106645  0  1.012546  0
H  H31  1  0.38978520  0.68242435  0.92688044  1  0.054212  0  0.097397  0.100106  0  1.015115  0
H  H32  1  0.28639717  0.21981299  0.01320273  1  0.103577  0  0.125843  0.098897  0  0.962654  0
H  H33  1  0.37333733  0.26640291  0.84324206  1  0.095492  0  0.107355  0.109616  0  1.004478  0
H  H34  1  0.09153732  0.47517361  0.86246451  1  0.111345  0  0.108533  0.122941  0  1.034702  0
H  H35  1  0.01280364  0.41271158  0.03024917  1  0.105147  0  0.11969  0.090631  0  1.028333  0
H  H36  1  0.23185094  0.46619463  0.71385264  1  0.094477  0  0.106907  0.115316  0  1.006488  0
H  H37  1  0.45362443  0.36623391  0.71518639  1  0.063165  0  0.09824  0.089033  0  1.020664  0
H  H38  1  0.60848546  0.39606661  0.58344468  1  0.042302  0  0.093565  0.08906  0  1.054324  0
H  H39  1  0.29746912  0.52802089  0.57533873  1  0.073467  0  0.106375  0.113928  0  1.004127  0
H  H40  1  0.82260407  0.16962215  0.53195200  1  0.107541  0  0.127209  0.102357  0  0.975972  0
H  H41  1  0.69311801  0.19282004  0.69386573  1  0.063107  0  0.111752  0.119648  0  0.983533  0
H  H42  1  0.79819574  0.50168449  0.65129305  1  0.091562  0  0.110332  0.122479  0  1.015288  0
H  H43  1  0.92078316  0.46492898  0.49287272  1  0.097996  0  0.120287  0.094342  0  1.01583  0
H  H44  1  0.59203187  0.31296734  0.81078458  1  0.030411  0  0.099143  0.095266  0  1.014594  0
H  H45  1  0.73059124  0.49148794  0.80031933  1  0.085487  0  0.10774  0.110721  0  1.007078  0
H  H46  1  0.44852156  0.38685337  0.90962001  1  0.053213  0  0.093333  0.084519  0  1.0607  0
H  H47  1  0.68736140  0.56359561  0.94124165  1  0.078828  0  0.105276  0.113555  0  1.010645  0
H  H48  1  0.08771925  0.98038172  0.15884627  1  0.102393  0  0.10491  0.113764  0  1.003163  0
H  H49  1  0.90437760  0.78913658  0.46802621  1  0.088438  0  0.10065  0.10829  0  1.022501  0
H  H50  1  0.92419398  0.97610966  0.45431626  1  0.088941  0  0.104854  0.112074  0  1.003872  0
H  H51  1  0.12559874  0.81746340  0.08423106  1  0.07715  0  0.102986  0.105716  0  0.992243  0
H  H52  1  0.11299155  0.62848035  0.09880994  1  0.06397  0  0.101219  0.107297  0  1.010705  0
H  H53  1  0.93436649  0.62781515  0.39207613  1  0.120526  0  0.102782  0.106542  0  1.01617  0
H  H54  1  0.25520165  0.28967275  0.44526581  1  0.074611  0  0.100126  0.103368  0  1.023262  0
H  H55  1  0.43679882  0.29097669  0.45958661  1  0.059555  0  0.100895  0.104386  0  1.001731  0
H  H56  1  0.40927884  0.29988461  0.14866013  1  0.070446  0  0.099641  0.103353  0  1.03525  0
H  H57  1  0.63977513  0.29458200  0.38461251  1  0.087017  0  0.102751  0.108858  0  1.02091  0
H  H58  1  0.79177280  0.32346159  0.08751881  1  0.068248  0  0.100914  0.106651  0  1.012499  0
H  H59  1  0.61021520  0.31757305  0.07311993  1  0.054212  0  0.097394  0.100119  0  1.015137  0
C  C60  1  0.75399683  0.72417464  0.02341043  1  0.520603  0  0.050741  0.090671  0  3.960979  0
C  C61  1  0.70531762  0.69628854  0.11788366  1  -0.09718  0  -0.083678  -0.184487  0  3.950695  0
C  C62  1  0.75789227  0.62081588  0.16254575  1  -0.074472  0  0.014056  0.163872  0  4.011361  0
C  C63  1  0.86235114  0.58214558  0.10746197  1  -0.027952  0  -0.079245  -0.1737  0  3.91099  0
C  C64  1  0.90631524  0.61524570  0.01393789  1  0.516954  0  0.049964  0.103068  0  3.925128  0
C  C65  1  0.71100866  0.58026928  0.25908213  1  0.025302  0  -0.086777  -0.137233  0  3.956347  0
C  C66  1  0.60373663  0.59045287  0.31367648  1  -0.095482  0  -0.075451  -0.09606  0  3.96718  0
C  C67  1  0.43913197  0.55825748  0.45346121  1  0.03242  0  -0.085826  -0.123921  0  3.966746  0
C  C68  1  0.55382605  0.54476366  0.40821419  1  -0.040276  0  -0.007896  0.102492  0  4.036626  0
C  C69  1  0.61397289  0.48524322  0.45709139  1  -0.05956  0  -0.080342  -0.111362  0  3.94316  0
C  C70  1  0.18588043  0.75860503  0.43774368  1  0.502138  0  0.055942  0.102076  0  3.942583  0
C  C71  1  0.25736113  0.74477259  0.34819792  1  -0.002977  0  -0.082378  -0.188262  0  3.947035  0
C  C72  1  0.26560217  0.65061822  0.31197128  1  -0.030038  0  0.011754  0.154147  0  4.03541  0
C  C73  1  0.19864649  0.57396881  0.37052826  1  -0.016316  0  -0.076777  -0.165374  0  3.913411  0
C  C74  1  0.12987775  0.59342581  0.45908903  1  0.479989  0  0.049319  0.095391  0  3.933045  0
C  C75  1  0.34343855  0.63305051  0.22016548  1  0.013635  0  -0.093778  -0.151732  0  3.985071  0
C  C76  1  0.33972733  0.55610426  0.17211793  1  -0.079997  0  -0.070435  -0.086434  0  3.954993  0
C  C77  1  0.52797688  0.56483239  0.05024573  1  0.00889  0  -0.087046  -0.120616  0  3.971784  0
C  C78  1  0.42130568  0.52996425  0.08445846  1  -0.00189  0  -0.008744  0.100897  0  4.03697  0
C  C79  1  0.39498363  0.46400717  0.03255681  1  -0.0891  0  -0.080884  -0.119666  0  3.958403  0
C  C80  1  0.98529907  0.89741658  0.70363996  1  1.553997  0  0.214055  0.592468  0  4.167307  0
C  C81  1  0.99369288  0.01103422  0.69518057  1  -0.009896  0  -0.019242  -0.030294  0  3.979607  0
C  C82  1  0.95187777  0.06255938  0.77408866  1  -0.038739  0  -0.080786  -0.142771  0  3.939411  0
C  C83  1  0.96029501  0.16920678  0.76878271  1  -0.03304  0  -0.007018  0.077415  0  4.010423  0
C  C84  1  0.01525834  0.22350378  0.67994891  1  -0.029415  0  -0.007745  0.073651  0  4.001355  0
C  C85  1  0.05678358  0.16905269  0.59985862  1  -0.08717  0  -0.090396  -0.131706  0  3.979336  0
C  C86  1  0.04553727  0.06548834  0.60709266  1  -0.004836  0  -0.087731  -0.099419  0  3.990594  0
C  C87  1  0.91562340  0.22429206  0.84837028  1  -0.084139  0  -0.090846  -0.133257  0  3.995608  0
C  C88  1  0.92295804  0.32844591  0.84080628  1  -0.001995  0  -0.093962  -0.10573  0  4.021511  0
C  C89  1  0.97740218  0.38250902  0.75318874  1  -0.053902  0  -0.025744  -0.046604  0  4.001005  0
C  C90  1  0.02376160  0.33010115  0.67490266  1  -0.02079  0  -0.080806  -0.136579  0  3.941561  0
C  C91  1  0.98077347  0.49655892  0.74485989  1  1.534487  0  0.206629  0.571165  0  4.204839  0
C  C92  1  0.78703862  0.70576467  0.71367814  1  1.553033  0  0.210366  0.581818  0  4.1811  0
C  C93  1  0.67773185  0.70602085  0.70466179  1  -0.01391  0  -0.024672  -0.042973  0  3.99483  0
C  C94  1  0.67000034  0.70780530  0.61606285  1  -0.041657  0  -0.091233  -0.103561  0  4.005094  0
C  C95  1  0.56945848  0.70694072  0.60839569  1  -0.046206  0  -0.089569  -0.126161  0  3.986261  0
C  C96  1  0.47210410  0.70175598  0.68862253  1  -0.009648  0  -0.005526  0.07789  0  3.996891  0
C  C97  1  0.47981630  0.69734950  0.77834917  1  -0.012034  0  -0.006972  0.077617  0  3.996743  0
C  C98  1  0.58381721  0.70169406  0.78377062  1  -0.026758  0  -0.081423  -0.136301  0  3.940591  0
C  C99  1  0.36781661  0.70017411  0.68302466  1  -0.059612  0  -0.078772  -0.132723  0  3.931706  0
C  C100  1  0.27459891  0.69144525  0.76237886  1  -0.00274  0  -0.020978  -0.034489  0  3.983756  0
C  C101  1  0.28280782  0.68429448  0.85120189  1  -0.051399  0  -0.091495  -0.10165  0  4.000606  0
C  C102  1  0.38301495  0.68784110  0.85881892  1  -0.007731  0  -0.091904  -0.130923  0  3.994369  0
C  C103  1  0.16549039  0.69009373  0.75349125  1  1.555945  0  0.211943  0.584789  0  4.181687  0
C  C104  1  0.24600250  0.27582658  0.97659051  1  0.520625  0  0.050775  0.090656  0  3.960997  0
C  C105  1  0.29468105  0.30371039  0.88211581  1  -0.097815  0  -0.083705  -0.184553  0  3.950687  0
C  C106  1  0.24210644  0.37918228  0.83745442  1  -0.07377  0  0.01404  0.163883  0  4.011346  0
C  C107  1  0.13764661  0.41785489  0.89253698  1  -0.028317  0  -0.079191  -0.173636  0  3.910883  0
C  C108  1  0.09368409  0.38475553  0.98606240  1  0.516696  0  0.04989  0.103023  0  3.925096  0
C  C109  1  0.28898842  0.41972889  0.74091792  1  0.025764  0  -0.08675  -0.137178  0  3.956275  0
C  C110  1  0.39626045  0.40954530  0.68632357  1  -0.095392  0  -0.075457  -0.096021  0  3.967119  0
C  C111  1  0.56086429  0.44174069  0.54653910  1  0.03221  0  -0.085897  -0.123966  0  3.966849  0
C  C112  1  0.44617098  0.45523528  0.59178515  1  -0.040308  0  -0.007867  0.102516  0  4.036782  0
C  C113  1  0.38602414  0.51475572  0.54290924  1  -0.059713  0  -0.080405  -0.111383  0  3.943165  0
C  C114  1  0.81412058  0.24139542  0.56225553  1  0.502155  0  0.055953  0.102073  0  3.942525  0
C  C115  1  0.74264075  0.25522709  0.65180367  1  -0.003281  0  -0.082369  -0.18822  0  3.946974  0
C  C116  1  0.73439967  0.34938223  0.68802896  1  -0.029726  0  0.011786  0.154213  0  4.035338  0
C  C117  1  0.80135458  0.42603088  0.62947165  1  -0.016333  0  -0.076772  -0.165402  0  3.913454  0
C  C118  1  0.87012327  0.40657465  0.54091082  1  0.479957  0  0.049341  0.095439  0  3.93303  0
C  C119  1  0.65656328  0.36694993  0.77983540  1  0.013787  0  -0.093767  -0.151752  0  3.98515  0
C  C120  1  0.66027286  0.44389620  0.82788282  1  -0.080143  0  -0.070364  -0.08631  0  3.954945  0
C  C121  1  0.47202337  0.43516730  0.94975445  1  0.008839  0  -0.087063  -0.120701  0  3.971752  0
C  C122  1  0.57869303  0.47003391  0.91554300  1  -0.001932  0  -0.008803  0.100901  0  4.036895  0
C  C123  1  0.60501585  0.53599175  0.96744497  1  -0.089045  0  -0.080934  -0.119796  0  3.958542  0
C  C124  1  0.01470118  0.10258311  0.29635957  1  1.553989  0  0.214044  0.592467  0  4.167397  0
C  C125  1  0.00630650  0.98896624  0.30481980  1  -0.009919  0  -0.019236  -0.030315  0  3.979558  0
C  C126  1  0.04812401  0.93744184  0.22591151  1  -0.03876  0  -0.080757  -0.1427  0  3.939328  0
C  C127  1  0.03970590  0.83079521  0.23121636  1  -0.033356  0  -0.007035  0.077385  0  4.010324  0
C  C128  1  0.98474191  0.77649591  0.32005126  1  -0.029398  0  -0.007807  0.073523  0  4.001467  0
C  C129  1  0.94321831  0.83094700  0.40014104  1  -0.087145  0  -0.09034  -0.131644  0  3.979414  0
C  C130  1  0.95446298  0.93451135  0.39290688  1  -0.004842  0  -0.087722  -0.099356  0  3.990567  0
C  C131  1  0.08437680  0.77570840  0.15162854  1  -0.083778  0  -0.090845  -0.133171  0  3.995489  0
C  C132  1  0.07704221  0.67155379  0.15919197  1  -0.002002  0  -0.093976  -0.105762  0  4.021424  0
C  C133  1  0.02259802  0.61749144  0.24681009  1  -0.053897  0  -0.02575  -0.046602  0  4.00097  0
C  C134  1  0.97623947  0.66989855  0.32509661  1  -0.020783  0  -0.080792  -0.13658  0  3.941659  0
C  C135  1  0.01922749  0.50344230  0.25513989  1  1.534455  0  0.206664  0.571237  0  4.204928  0
C  C136  1  0.21296153  0.29423655  0.28632318  1  1.552958  0  0.210389  0.581823  0  4.181112  0
C  C137  1  0.32226748  0.29398037  0.29533851  1  -0.013982  0  -0.024673  -0.042953  0  3.994784  0
C  C138  1  0.33000062  0.29219592  0.38393822  1  -0.041566  0  -0.091235  -0.103584  0  4.005082  0
C  C139  1  0.43054254  0.29305974  0.39160481  1  -0.046296  0  -0.089567  -0.126128  0  3.986252  0
C  C140  1  0.52789610  0.29824448  0.31137629  1  -0.009577  0  -0.005571  0.077839  0  3.996892  0
C  C141  1  0.52018471  0.30265095  0.22165132  1  -0.012065  0  -0.007002  0.07761  0  3.996851  0
C  C142  1  0.41618299  0.29830640  0.21623013  1  -0.026559  0  -0.081399  -0.136279  0  3.940572  0
C  C143  1  0.63218273  0.29982711  0.31697563  1  -0.059671  0  -0.078782  -0.132723  0  3.931672  0
C  C144  1  0.72539802  0.30855521  0.23762227  1  -0.002643  0  -0.020941  -0.03445  0  3.983642  0
C  C145  1  0.71719161  0.31570522  0.14879789  1  -0.051399  0  -0.091497  -0.101608  0  4.000574  0
C  C146  1  0.61698453  0.31215783  0.14118158  1  -0.007748  0  -0.091912  -0.131005  0  3.994499  0
C  C147  1  0.83451068  0.30990596  0.24650802  1  1.555841  0  0.211943  0.584845  0  4.181563  0
N  N148  1  0.85280117  0.68374260  0.97118778  1  -1.249212  0  -0.329124  -0.22169  0  3.518287  0
N  N149  1  0.12323182  0.68392459  0.49293959  1  -1.253211  0  -0.330524  -0.220751  0  3.529161  0
N  N150  1  0.14719975  0.31625938  0.02881194  1  -1.248955  0  -0.329112  -0.221682  0  3.518341  0
N  N151  1  0.87676838  0.31607587  0.50705988  1  -1.253225  0  -0.330563  -0.220816  0  3.529185  0
O  O152  1  0.94605282  0.85256544  0.78545263  1  -1.174072  0  -0.320525  -0.548571  0  2.331607  0
O  O153  1  0.01883414  0.85444970  0.62850567  1  -1.162677  0  -0.316402  -0.543075  0  2.319742  0
O  O154  1  0.93129614  0.54155726  0.81814468  1  -1.178728  0  -0.318934  -0.562228  0  2.339463  0
O  O155  1  0.03227583  0.54068396  0.66473950  1  -1.181947  0  -0.318819  -0.560427  0  2.371769  0
O  O156  1  0.78697449  0.71251148  0.79445510  1  -1.167099  0  -0.320241  -0.551881  0  2.349367  0
O  O157  1  0.87183287  0.69644980  0.64029236  1  -1.170886  0  -0.316983  -0.54916  0  2.322306  0
O  O158  1  0.08169526  0.68112268  0.82835988  1  -1.182673  0  -0.317765  -0.555416  0  2.351716  0
O  O159  1  0.16445044  0.69762438  0.67171944  1  -1.16516  0  -0.318239  -0.553382  0  2.354238  0
O  O160  1  0.05394902  0.14743502  0.21454632  1  -1.174125  0  -0.320559  -0.548609  0  2.331638  0
O  O161  1  0.98116529  0.14554999  0.37149347  1  -1.162599  0  -0.316377  -0.543069  0  2.319803  0
O  O162  1  0.06870493  0.45844243  0.18185523  1  -1.178716  0  -0.318962  -0.562279  0  2.339501  0
O  O163  1  0.96772749  0.45931878  0.33526131  1  -1.18189  0  -0.31881  -0.560419  0  2.371748  0
O  O164  1  0.21302499  0.28748744  0.20554604  1  -1.167  0  -0.320234  -0.551877  0  2.349341  0
O  O165  1  0.12816728  0.30355142  0.35970832  1  -1.17092  0  -0.317011  -0.54917  0  2.322342  0
O  O166  1  0.91830417  0.31887702  0.17163927  1  -1.182692  0  -0.317748  -0.555434  0  2.35165  0
O  O167  1  0.83555078  0.30237302  0.32828068  1  -1.165117  0  -0.318261  -0.553445  0  2.354223  0
