# generated using pymatgen
data_ZnH16C25N2O5
_symmetry_space_group_name_H-M   'P 1'
_cell_length_a   14.63228516
_cell_length_b   14.63227599
_cell_length_c   16.46944600
_cell_angle_alpha   100.99515007
_cell_angle_beta   100.99527141
_cell_angle_gamma   119.16075888
_symmetry_Int_Tables_number   1
_chemical_formula_structural   ZnH16C25N2O5
_chemical_formula_sum   'Zn4 H64 C100 N8 O20'
_cell_volume   2852.43365004
_cell_formula_units_Z   4
loop_
 _symmetry_equiv_pos_site_id
 _symmetry_equiv_pos_as_xyz
  1  'x, y, z'
loop_
 _atom_site_type_symbol
 _atom_site_label
 _atom_site_symmetry_multiplicity
 _atom_site_fract_x
 _atom_site_fract_y
 _atom_site_fract_z
 _atom_site_occupancy
 _atom_site_pbe_bader_charge
 _atom_site_pbe_bader_spin_density
 _atom_site_pbe_cm5_charge
 _atom_site_pbe_ddec_charge
 _atom_site_pbe_ddec_spin_density
 _atom_site_pbe_ddec_sum_bond_order
 _atom_site_pbe_magmom
Zn  Zn0  1  0.57376137  0.58544089  0.85810385  1  1.292714  0  0.683422  0.837137  0  2.330284  0
Zn  Zn1  1  0.41455851  0.42623854  0.64189652  1  1.2925  0  0.68345  0.837174  0  2.330302  0
Zn  Zn2  1  0.42623822  0.41455836  0.14189479  1  1.292692  0  0.683448  0.83717  0  2.330299  0
Zn  Zn3  1  0.58544191  0.57376185  0.35810427  1  1.29251  0  0.683449  0.837175  0  2.330304  0
H  H4  1  0.80352137  0.77546717  0.98089458  1  0.133556  0  0.118949  0.096786  0  1.007522  0
H  H5  1  0.22453206  0.19647845  0.51910701  1  0.133543  0  0.118959  0.096822  0  1.007442  0
H  H6  1  0.19647821  0.22453278  0.01910661  1  0.133538  0  0.118964  0.096823  0  1.007458  0
H  H7  1  0.77546587  0.80352199  0.48089398  1  0.133547  0  0.118966  0.096808  0  1.00746  0
H  H8  1  0.88960254  0.89099085  0.14108654  1  0.129734  0  0.110317  0.119989  0  1.03267  0
H  H9  1  0.10900886  0.11039724  0.35891357  1  0.129748  0  0.110332  0.120014  0  1.032669  0
H  H10  1  0.11039622  0.10900865  0.85891321  1  0.12973  0  0.110324  0.119976  0  1.032682  0
H  H11  1  0.89099156  0.88960316  0.64108601  1  0.129731  0  0.110306  0.119985  0  1.032669  0
H  H12  1  0.56349241  0.70799142  0.16390526  1  0.130383  0  0.111906  0.13137  0  1.023409  0
H  H13  1  0.29200923  0.43650770  0.33609554  1  0.130377  0  0.111922  0.131389  0  1.023386  0
H  H14  1  0.43650717  0.29200713  0.83609508  1  0.130375  0  0.11189  0.131366  0  1.023435  0
H  H15  1  0.70799201  0.56349385  0.66390559  1  0.130585  0  0.111897  0.131372  0  1.023399  0
H  H16  1  0.49098645  0.60471027  0.00388056  1  0.131207  0  0.117673  0.09204  0  1.023527  0
H  H17  1  0.39529050  0.50901344  0.49611965  1  0.131194  0  0.117652  0.091997  0  1.023581  0
H  H18  1  0.50901231  0.39528853  0.99611968  1  0.131221  0  0.117652  0.091995  0  1.023525  0
H  H19  1  0.60470826  0.49098466  0.50387926  1  0.131148  0  0.117655  0.091991  0  1.023511  0
H  H20  1  0.70894478  0.84165997  0.29087934  1  0.148086  0  0.110258  0.084039  0  1.056923  0
H  H21  1  0.15834030  0.29105550  0.20912143  1  0.148095  0  0.110262  0.08404  0  1.056932  0
H  H22  1  0.29105563  0.15833973  0.70912194  1  0.148025  0  0.110263  0.084026  0  1.056959  0
H  H23  1  0.84166012  0.70894490  0.79087815  1  0.148032  0  0.110261  0.084023  0  1.056978  0
H  H24  1  0.78608263  0.02854232  0.38264230  1  0.050594  0  0.10235  0.106539  0  1.003763  0
H  H25  1  0.97145868  0.21391778  0.11735888  1  0.050473  0  0.102337  0.106528  0  1.003744  0
H  H26  1  0.21391696  0.97145763  0.61735767  1  0.050602  0  0.102335  0.106534  0  1.003758  0
H  H27  1  0.02854256  0.78608306  0.88264273  1  0.050612  0  0.102355  0.106575  0  1.003732  0
H  H28  1  0.02926109  0.90459736  0.35215672  1  0.109932  0  0.099716  0.099365  0  1.043587  0
H  H29  1  0.09540293  0.97073941  0.14784398  1  0.109919  0  0.099718  0.099369  0  1.043585  0
H  H30  1  0.97073933  0.09540304  0.64784286  1  0.109942  0  0.099726  0.099377  0  1.043578  0
H  H31  1  0.90459749  0.02926169  0.85215754  1  0.10995  0  0.099719  0.099374  0  1.043559  0
H  H32  1  0.17272756  0.89954492  0.45650908  1  0.062577  0  0.096526  0.096759  0  1.034971  0
H  H33  1  0.10045604  0.82727316  0.04349131  1  0.062568  0  0.096523  0.096742  0  1.03499  0
H  H34  1  0.82727203  0.10045573  0.54349041  1  0.062574  0  0.096513  0.09671  0  1.03497  0
H  H35  1  0.89954521  0.17272839  0.95651043  1  0.062576  0  0.096528  0.096741  0  1.034985  0
H  H36  1  0.62662661  0.30739497  0.87736963  1  0.083793  0  0.105995  0.107681  0  0.997092  0
H  H37  1  0.69260651  0.37337487  0.62263229  1  0.083794  0  0.105985  0.107674  0  0.99709  0
H  H38  1  0.37337298  0.69260498  0.12262791  1  0.083713  0  0.105985  0.107669  0  0.997119  0
H  H39  1  0.30739473  0.62662667  0.37736944  1  0.083793  0  0.105987  0.107685  0  0.997097  0
H  H40  1  0.72940611  0.21196656  0.88319699  1  0.059514  0  0.108347  0.122376  0  0.98872  0
H  H41  1  0.78803359  0.27059373  0.61680341  1  0.0595  0  0.108335  0.122352  0  0.988718  0
H  H42  1  0.27059265  0.78803224  0.11680022  1  0.059508  0  0.108325  0.122368  0  0.988666  0
H  H43  1  0.21196766  0.72940712  0.38319943  1  0.059518  0  0.108313  0.122324  0  0.9887  0
H  H44  1  0.99725458  0.48126106  0.83866879  1  0.061458  0  0.104251  0.119826  0  1.011591  0
H  H45  1  0.51873863  0.00274465  0.66133081  1  0.061455  0  0.104245  0.119842  0  1.011574  0
H  H46  1  0.00274749  0.51874024  0.16133243  1  0.06147  0  0.104226  0.119819  0  1.011657  0
H  H47  1  0.48126096  0.99725390  0.33866953  1  0.061467  0  0.104238  0.11982  0  1.011645  0
H  H48  1  0.89490421  0.57678161  0.83545633  1  0.074978  0  0.103012  0.101403  0  1.015605  0
H  H49  1  0.42321884  0.10509589  0.66454336  1  0.074993  0  0.103005  0.101385  0  1.015635  0
H  H50  1  0.10509787  0.42321899  0.16454478  1  0.075002  0  0.103012  0.101379  0  1.015611  0
H  H51  1  0.57678157  0.89490381  0.33545610  1  0.07499  0  0.103009  0.101406  0  1.015604  0
H  H52  1  0.93618327  0.23453401  0.70840466  1  0.072464  0  0.10743  0.121523  0  1.01981  0
H  H53  1  0.76546687  0.06381693  0.79159488  1  0.072471  0  0.107426  0.121515  0  1.019794  0
H  H54  1  0.06381715  0.76546638  0.29159492  1  0.072472  0  0.107423  0.121508  0  1.019792  0
H  H55  1  0.23453355  0.93618347  0.20840531  1  0.072484  0  0.107417  0.121486  0  1.019784  0
H  H56  1  0.11597050  0.30658322  0.67615167  1  0.133105  0  0.10685  0.112552  0  1.004509  0
H  H57  1  0.69341735  0.88402998  0.82384822  1  0.133104  0  0.106848  0.112556  0  1.004518  0
H  H58  1  0.88403074  0.69341763  0.32384873  1  0.133097  0  0.106859  0.112552  0  1.004507  0
H  H59  1  0.30658307  0.11597111  0.17615148  1  0.1331  0  0.106845  0.112545  0  1.004522  0
H  H60  1  0.29714669  0.49422385  0.94959717  1  0.100981  0  0.104648  0.107722  0  1.014741  0
H  H61  1  0.50577497  0.70285302  0.55040289  1  0.100977  0  0.104643  0.10772  0  1.014746  0
H  H62  1  0.70285206  0.50577356  0.05040284  1  0.100966  0  0.104641  0.107709  0  1.014733  0
H  H63  1  0.49422545  0.29714807  0.44959681  1  0.100963  0  0.104643  0.107711  0  1.014741  0
H  H64  1  0.11861624  0.42195209  0.98161656  1  0.100089  0  0.104545  0.121271  0  1.028589  0
H  H65  1  0.57804702  0.88138267  0.51838331  1  0.10014  0  0.104583  0.121341  0  1.028587  0
H  H66  1  0.88138251  0.57804532  0.01838345  1  0.100145  0  0.104539  0.121255  0  1.028598  0
H  H67  1  0.42195423  0.11861818  0.48161709  1  0.100147  0  0.104586  0.12134  0  1.028592  0
C  C68  1  0.75384929  0.76576258  0.02402135  1  0.450204  0  0.051169  0.098714  0  3.913475  0
C  C69  1  0.23423669  0.24614984  0.47597857  1  0.4502  0  0.051153  0.098668  0  3.913403  0
C  C70  1  0.24614947  0.23423623  0.97597828  1  0.450205  0  0.051132  0.09862  0  3.913418  0
C  C71  1  0.76576290  0.75385081  0.52402213  1  0.450221  0  0.051105  0.098625  0  3.913353  0
C  C72  1  0.80102663  0.82871542  0.11233863  1  0.013616  0  -0.071289  -0.148548  0  3.902555  0
C  C73  1  0.17128528  0.19897474  0.38766190  1  0.013626  0  -0.071311  -0.148597  0  3.90271  0
C  C74  1  0.19897378  0.17128428  0.88766144  1  0.013619  0  -0.071278  -0.148509  0  3.902713  0
C  C75  1  0.82871514  0.80102705  0.61233853  1  0.013607  0  -0.071272  -0.148513  0  3.902636  0
C  C76  1  0.73292763  0.80968970  0.16488550  1  -0.01693  0  0.010716  0.108106  0  4.002485  0
C  C77  1  0.19031059  0.26707196  0.33511400  1  -0.017001  0  0.010737  0.108088  0  4.002609  0
C  C78  1  0.26707113  0.19030911  0.83511353  1  -0.016935  0  0.010729  0.10815  0  4.002597  0
C  C79  1  0.80968983  0.73292914  0.66488570  1  -0.016927  0  0.010724  0.108117  0  4.002473  0
C  C80  1  0.61937097  0.72851769  0.12552395  1  -0.033782  0  -0.076576  -0.161806  0  3.915933  0
C  C81  1  0.27148264  0.38063069  0.37447648  1  -0.033714  0  -0.076602  -0.161782  0  3.91587  0
C  C82  1  0.38063027  0.27148107  0.87447610  1  -0.033776  0  -0.076564  -0.161808  0  3.915985  0
C  C83  1  0.72851612  0.61936882  0.62552266  1  -0.033971  0  -0.07657  -0.161795  0  3.915885  0
C  C84  1  0.57840203  0.66932622  0.03681175  1  0.482567  0  0.047776  0.100297  0  3.927486  0
C  C85  1  0.33067392  0.42159904  0.46318857  1  0.482523  0  0.047753  0.100262  0  3.927477  0
C  C86  1  0.42159756  0.33067233  0.96318798  1  0.482564  0  0.04778  0.100335  0  3.927478  0
C  C87  1  0.66932650  0.57840276  0.53681186  1  0.482597  0  0.047759  0.100292  0  3.927566  0
C  C88  1  0.77336128  0.86577449  0.25942169  1  0.601325  0  0.078761  0.077571  0  3.906813  0
C  C89  1  0.13422603  0.22663879  0.24057913  1  0.601309  0  0.078717  0.077493  0  3.906968  0
C  C90  1  0.22663831  0.13422476  0.74057877  1  0.601382  0  0.07873  0.07752  0  3.906924  0
C  C91  1  0.86577521  0.77336205  0.75942188  1  0.601393  0  0.078775  0.077575  0  3.90691  0
C  C92  1  0.84856417  0.02557573  0.42812151  1  -0.038558  0  -0.094811  -0.171567  0  3.987206  0
C  C93  1  0.97442498  0.15143575  0.07187838  1  -0.038359  0  -0.094795  -0.171563  0  3.987244  0
C  C94  1  0.15143625  0.97442467  0.57187807  1  -0.038554  0  -0.094807  -0.1716  0  3.98725  0
C  C95  1  0.02557544  0.84856465  0.92812241  1  -0.038558  0  -0.094845  -0.171701  0  3.987327  0
C  C96  1  0.90269309  0.97925186  0.39491399  1  0.396649  0  0.094718  0.165208  0  4.047019  0
C  C97  1  0.02075013  0.09730828  0.10508671  1  0.396624  0  0.094755  0.16523  0  4.046973  0
C  C98  1  0.09730733  0.02074853  0.60508620  1  0.396661  0  0.09475  0.165275  0  4.046999  0
C  C99  1  0.97925195  0.90269372  0.89491403  1  0.39665  0  0.094812  0.16535  0  4.046995  0
C  C100  1  0.98805253  0.97849441  0.45377550  1  -0.041706  0  -0.006613  0.003074  0  3.968806  0
C  C101  1  0.02150665  0.01194867  0.04622510  1  -0.01876  0  -0.006671  0.003115  0  3.96875  0
C  C102  1  0.01194706  0.02150554  0.54622447  1  -0.018731  0  -0.006602  0.003069  0  3.968784  0
C  C103  1  0.97849543  0.98805402  0.95377637  1  -0.04164  0  -0.006574  0.003073  0  3.96873  0
C  C104  1  0.04736651  0.93496270  0.42262297  1  -0.056779  0  -0.095984  -0.136059  0  3.997719  0
C  C105  1  0.06503881  0.95263467  0.07737743  1  -0.056802  0  -0.095986  -0.13613  0  3.99767  0
C  C106  1  0.95263391  0.06503770  0.57737661  1  -0.056784  0  -0.095978  -0.136057  0  3.997694  0
C  C107  1  0.93496327  0.04736732  0.92262392  1  -0.056793  0  -0.095986  -0.136067  0  3.997666  0
C  C108  1  0.12667579  0.93213111  0.48091789  1  -0.050933  0  -0.097517  -0.073482  0  4.045243  0
C  C109  1  0.06786974  0.87332421  0.01908228  1  -0.050917  0  -0.097529  -0.073433  0  4.045207  0
C  C110  1  0.87332463  0.06786929  0.51908169  1  -0.050921  0  -0.0975  -0.073424  0  4.045218  0
C  C111  1  0.93213151  0.12667664  0.98091873  1  -0.050955  0  -0.097533  -0.07348  0  4.045252  0
C  C112  1  0.69620005  0.50760375  0.85413134  1  1.544044  0  0.192427  0.554979  0  4.227337  0
C  C113  1  0.49239694  0.30380088  0.64587023  1  1.544101  0  0.192333  0.554788  0  4.227649  0
C  C114  1  0.30379954  0.49239550  0.14586609  1  1.54404  0  0.192341  0.554796  0  4.227731  0
C  C115  1  0.50760099  0.69619747  0.35413040  1  1.544093  0  0.192338  0.554736  0  4.227613  0
C  C116  1  0.75442616  0.44817630  0.85590587  1  -0.036011  0  -0.030399  -0.06799  0  4.014899  0
C  C117  1  0.55182501  0.24557477  0.64409531  1  -0.036201  0  -0.030431  -0.067941  0  4.014804  0
C  C118  1  0.24557260  0.55182250  0.14409255  1  -0.035739  0  -0.030351  -0.067765  0  4.014841  0
C  C119  1  0.44817623  0.75442538  0.35590558  1  -0.036235  0  -0.030412  -0.067891  0  4.014859  0
C  C120  1  0.70806102  0.34520777  0.86947872  1  -0.010715  0  -0.078227  -0.059361  0  3.988289  0
C  C121  1  0.65479381  0.29194015  0.63052321  1  -0.010733  0  -0.07819  -0.059345  0  3.988378  0
C  C122  1  0.29193857  0.65479148  0.13051870  1  -0.010729  0  -0.078224  -0.059463  0  3.988341  0
C  C123  1  0.34520661  0.70806095  0.36947892  1  -0.010646  0  -0.078214  -0.059456  0  3.988377  0
C  C124  1  0.76480181  0.29197565  0.87276060  1  -0.015588  0  -0.103849  -0.209746  0  4.000856  0
C  C125  1  0.70802515  0.23519910  0.62724065  1  -0.015443  0  -0.103826  -0.209742  0  4.000957  0
C  C126  1  0.23519778  0.70802290  0.12723731  1  -0.015627  0  -0.10384  -0.209724  0  4.000786  0
C  C127  1  0.29197693  0.76480290  0.37276130  1  -0.015757  0  -0.103815  -0.209649  0  4.000909  0
C  C128  1  0.86877512  0.34114356  0.86126769  1  0.43987  0  0.091189  0.27557  0  4.044404  0
C  C129  1  0.65885689  0.13122499  0.63873221  1  0.439663  0  0.091166  0.275605  0  4.044392  0
C  C130  1  0.13122613  0.65885798  0.13873222  1  0.439909  0  0.09117  0.275553  0  4.044426  0
C  C131  1  0.34114270  0.86877496  0.36126776  1  0.439905  0  0.091138  0.275541  0  4.044348  0
C  C132  1  0.91646001  0.44376557  0.84761580  1  -0.00467  0  -0.110799  -0.224711  0  4.01701  0
C  C133  1  0.55623470  0.08354012  0.65238402  1  -0.004713  0  -0.11077  -0.224736  0  4.017111  0
C  C134  1  0.08353958  0.55623438  0.15238357  1  -0.004753  0  -0.110762  -0.224689  0  4.01713  0
C  C135  1  0.44376572  0.91646028  0.34761617  1  -0.004717  0  -0.110776  -0.224704  0  4.017085  0
C  C136  1  0.85904257  0.49653401  0.84548909  1  -0.032178  0  -0.081413  -0.063043  0  3.995474  0
C  C137  1  0.50346675  0.14095719  0.65451124  1  -0.032176  0  -0.081436  -0.063077  0  3.995531  0
C  C138  1  0.14095785  0.50346778  0.15451012  1  -0.0323  0  -0.081438  -0.063082  0  3.995622  0
C  C139  1  0.49653284  0.85904206  0.34548922  1  -0.03215  0  -0.081411  -0.063074  0  3.995477  0
C  C140  1  0.01928730  0.32528806  0.84626993  1  0.347782  0  0.084733  0.258164  0  4.038829  0
C  C141  1  0.67471196  0.98071283  0.65372969  1  0.347792  0  0.084714  0.258091  0  4.038827  0
C  C142  1  0.98071228  0.67471050  0.15372980  1  0.347805  0  0.084692  0.258033  0  4.038902  0
C  C143  1  0.32528929  0.01928872  0.34627023  1  0.347811  0  0.084692  0.258073  0  4.038841  0
C  C144  1  0.01617323  0.29162117  0.76015288  1  0.019798  0  -0.09704  -0.198544  0  3.984858  0
C  C145  1  0.70837900  0.98382635  0.73984609  1  0.019811  0  -0.097016  -0.198498  0  3.984864  0
C  C146  1  0.98382636  0.70837808  0.23984636  1  0.019812  0  -0.09704  -0.198508  0  3.984908  0
C  C147  1  0.29162142  0.01617474  0.26015360  1  0.019822  0  -0.097025  -0.198473  0  3.984849  0
C  C148  1  0.11566703  0.33183485  0.74265304  1  -0.060071  0  -0.078604  -0.062759  0  3.969961  0
C  C149  1  0.66816524  0.88433270  0.75734722  1  -0.060075  0  -0.07861  -0.062767  0  3.96996  0
C  C150  1  0.88433339  0.66816555  0.25734775  1  -0.06008  0  -0.078618  -0.062775  0  3.96989  0
C  C151  1  0.33183435  0.11566794  0.24265287  1  -0.060087  0  -0.078605  -0.062771  0  3.969905  0
C  C152  1  0.21731815  0.40524439  0.81057091  1  -0.035987  0  -0.023444  -0.060099  0  3.976237  0
C  C153  1  0.59475436  0.78268185  0.68942859  1  -0.035967  0  -0.023472  -0.060122  0  3.976294  0
C  C154  1  0.78268144  0.59475416  0.18942883  1  -0.036011  0  -0.023464  -0.060085  0  3.976235  0
C  C155  1  0.40524523  0.21731950  0.31057162  1  -0.035968  0  -0.023434  -0.060066  0  3.976203  0
C  C156  1  0.21828377  0.43763559  0.89672659  1  -0.036956  0  -0.079765  -0.065793  0  3.966227  0
C  C157  1  0.56236294  0.78171610  0.60327343  1  -0.036989  0  -0.07973  -0.065757  0  3.966313  0
C  C158  1  0.78171499  0.56236322  0.10327365  1  -0.036961  0  -0.079745  -0.065787  0  3.966312  0
C  C159  1  0.43763666  0.21828524  0.39672678  1  -0.036993  0  -0.079752  -0.065781  0  3.966322  0
C  C160  1  0.11918258  0.39754124  0.91503823  1  0.012626  0  -0.095357  -0.190936  0  3.975656  0
C  C161  1  0.60245767  0.88081609  0.58496098  1  0.012578  0  -0.095374  -0.190968  0  3.975643  0
C  C162  1  0.88081535  0.60245572  0.08496156  1  0.012548  0  -0.095292  -0.190817  0  3.975617  0
C  C163  1  0.39754275  0.11918501  0.41503871  1  0.01256  0  -0.095331  -0.190908  0  3.975691  0
C  C164  1  0.32323909  0.44619223  0.79009536  1  1.578361  0  0.223701  0.606241  0  4.169219  0
C  C165  1  0.55380681  0.67676140  0.70990555  1  1.578178  0  0.22375  0.606279  0  4.169271  0
C  C166  1  0.67676132  0.55380748  0.20990531  1  1.578213  0  0.223763  0.606292  0  4.169217  0
C  C167  1  0.44619361  0.32324039  0.29009548  1  1.578179  0  0.223742  0.60625  0  4.169267  0
N  N168  1  0.64410062  0.68706623  0.98659158  1  -1.281893  0  -0.326039  -0.233741  0  3.542704  0
N  N169  1  0.31293396  0.35590037  0.51340969  1  -1.281842  0  -0.325995  -0.233672  0  3.542581  0
N  N170  1  0.35589979  0.31293277  0.01340898  1  -1.281866  0  -0.326017  -0.233722  0  3.542614  0
N  N171  1  0.68706397  0.64410008  0.48659130  1  -1.281888  0  -0.325995  -0.233695  0  3.542701  0
N  N172  1  0.87696471  0.93252292  0.30482199  1  -1.193774  0  -0.29636  -0.259002  0  3.32009  0
N  N173  1  0.06747809  0.12303529  0.19517893  1  -1.193858  0  -0.296343  -0.258938  0  3.320043  0
N  N174  1  0.12303488  0.06747703  0.69517798  1  -1.193803  0  -0.29636  -0.258984  0  3.320076  0
N  N175  1  0.93252316  0.87696556  0.80482208  1  -1.193864  0  -0.296383  -0.25902  0  3.320133  0
O  O176  1  0.59500168  0.45716020  0.85474335  1  -1.165043  0  -0.327482  -0.561511  0  2.27884  0
O  O177  1  0.54284123  0.40500081  0.64526342  1  -1.165507  0  -0.327398  -0.561378  0  2.279008  0
O  O178  1  0.40499707  0.54283721  0.14525362  1  -1.165051  0  -0.327441  -0.561449  0  2.279086  0
O  O179  1  0.45715836  0.59499844  0.35473765  1  -1.165557  0  -0.32741  -0.561368  0  2.279018  0
O  O180  1  0.74546410  0.60633439  0.85359112  1  -1.186534  0  -0.318431  -0.556302  0  2.211073  0
O  O181  1  0.39366493  0.25453448  0.64640673  1  -1.186518  0  -0.318404  -0.556247  0  2.211123  0
O  O182  1  0.25453549  0.39366486  0.14640752  1  -1.186523  0  -0.318401  -0.556248  0  2.211158  0
O  O183  1  0.60633632  0.74546497  0.35359344  1  -1.186485  0  -0.318415  -0.556234  0  2.210967  0
O  O184  1  0.91926566  0.28264533  0.86379936  1  -1.109826  0  -0.152459  -0.226826  0  2.576305  0
O  O185  1  0.71735405  0.08073434  0.63619984  1  -1.109789  0  -0.152465  -0.226819  0  2.576305  0
O  O186  1  0.08073393  0.71735392  0.13620049  1  -1.10982  0  -0.152457  -0.226797  0  2.5763  0
O  O187  1  0.28264637  0.91926675  0.36379986  1  -1.10976  0  -0.152428  -0.226805  0  2.576239  0
O  O188  1  0.31372088  0.40825784  0.71049728  1  -1.175944  0  -0.314608  -0.541236  0  2.388465  0
O  O189  1  0.59174050  0.68627791  0.78950143  1  -1.175933  0  -0.314607  -0.541238  0  2.388602  0
O  O190  1  0.68627788  0.59174097  0.28950175  1  -1.175942  0  -0.314619  -0.541252  0  2.388485  0
O  O191  1  0.40825992  0.31372318  0.21049888  1  -1.175916  0  -0.314614  -0.541247  0  2.388521  0
O  O192  1  0.41378465  0.51436687  0.85318068  1  -1.189164  0  -0.314352  -0.553269  0  2.377563  0
O  O193  1  0.48563126  0.58621445  0.64681865  1  -1.188977  0  -0.314394  -0.553313  0  2.377515  0
O  O194  1  0.58621493  0.48563168  0.14681906  1  -1.188977  0  -0.314382  -0.5533  0  2.377556  0
O  O195  1  0.51436916  0.41378595  0.35318154  1  -1.189019  0  -0.314411  -0.553316  0  2.377582  0
