# generated using pymatgen
data_CdH16C20N2(ClO)2
_symmetry_space_group_name_H-M   'P 1'
_cell_length_a   12.21317231
_cell_length_b   13.16265461
_cell_length_c   16.10069540
_cell_angle_alpha   95.02464634
_cell_angle_beta   112.29969826
_cell_angle_gamma   90.04094769
_symmetry_Int_Tables_number   1
_chemical_formula_structural   CdH16C20N2(ClO)2
_chemical_formula_sum   'Cd4 H64 C80 N8 Cl8 O8'
_cell_volume   2383.91490916
_cell_formula_units_Z   4
loop_
 _symmetry_equiv_pos_site_id
 _symmetry_equiv_pos_as_xyz
  1  'x, y, z'
loop_
 _atom_site_type_symbol
 _atom_site_label
 _atom_site_symmetry_multiplicity
 _atom_site_fract_x
 _atom_site_fract_y
 _atom_site_fract_z
 _atom_site_occupancy
 _atom_site_pbe_bader_charge
 _atom_site_pbe_bader_spin_density
 _atom_site_pbe_cm5_charge
 _atom_site_pbe_ddec_charge
 _atom_site_pbe_ddec_spin_density
 _atom_site_pbe_ddec_sum_bond_order
 _atom_site_pbe_magmom
Cd  Cd0  1  0.03601824  0.05894866  0.61980092  1  1.172479  0  0.597727  0.813629  0  2.416755  0
Cd  Cd1  1  0.41647467  0.44112161  0.38018752  1  1.169008  0  0.597555  0.813908  0  2.416276  0
Cd  Cd2  1  0.96398014  0.94105044  0.38020165  1  1.172451  0  0.597725  0.813622  0  2.41676  0
Cd  Cd3  1  0.58353005  0.55887895  0.61981786  1  1.168922  0  0.597585  0.813875  0  2.416315  0
H  H4  1  0.12207001  0.11057877  0.83005794  1  0.114952  0  0.114621  0.09507  0  0.9943  0
H  H5  1  0.29215395  0.38978448  0.16966352  1  0.13172  0  0.114319  0.094213  0  0.995955  0
H  H6  1  0.87792890  0.88941977  0.16993726  1  0.114869  0  0.114603  0.095066  0  0.994284  0
H  H7  1  0.70784776  0.61021749  0.83034597  1  0.131776  0  0.114287  0.094178  0  0.995923  0
H  H8  1  0.33068350  0.03353653  0.68538565  1  0.140118  0  0.108643  0.083918  0  1.045342  0
H  H9  1  0.64559960  0.46633759  0.31470598  1  0.135213  0  0.108762  0.083427  0  1.045613  0
H  H10  1  0.66931999  0.96646487  0.31461682  1  0.140106  0  0.108669  0.083929  0  1.045365  0
H  H11  1  0.35440490  0.53365922  0.68529636  1  0.135709  0  0.108789  0.083462  0  1.04562  0
H  H12  1  0.29812088  0.14515863  0.97416749  1  0.064655  0  0.1069  0.113643  0  1.001056  0
H  H13  1  0.32437202  0.35494153  0.02575408  1  0.050815  0  0.10687  0.113283  0  1.002275  0
H  H14  1  0.70187566  0.85484216  0.02582900  1  0.064679  0  0.106938  0.113704  0  1.001046  0
H  H15  1  0.67561793  0.64506372  0.97424753  1  0.050859  0  0.106924  0.11335  0  1.002312  0
H  H16  1  0.51730963  0.06288814  0.82240758  1  0.075093  0  0.107194  0.116802  0  0.991422  0
H  H17  1  0.69549124  0.43699999  0.17788213  1  0.083996  0  0.107111  0.11675  0  0.990973  0
H  H18  1  0.48269120  0.93711021  0.17759475  1  0.075072  0  0.107186  0.116757  0  0.991454  0
H  H19  1  0.30450735  0.56300378  0.82211741  1  0.084124  0  0.107078  0.116689  0  0.99095  0
H  H20  1  0.61454586  0.12587960  0.98005619  1  0.071613  0  0.106047  0.102682  0  0.991713  0
H  H21  1  0.63481551  0.37424919  0.01991090  1  0.06224  0  0.106349  0.102747  0  0.991265  0
H  H22  1  0.38545491  0.87411805  0.01994342  1  0.071588  0  0.106009  0.102612  0  0.991746  0
H  H23  1  0.36517989  0.62575305  0.98008892  1  0.062513  0  0.106354  0.102761  0  0.991114  0
H  H24  1  0.45291264  0.13658591  0.08813347  1  0.065021  0  0.10746  0.105792  0  0.998036  0
H  H25  1  0.36493266  0.36352022  0.91197144  1  0.061382  0  0.107308  0.105638  0  0.997861  0
H  H26  1  0.54708845  0.86341697  0.91187109  1  0.064928  0  0.10744  0.10573  0  0.998039  0
H  H27  1  0.63506383  0.63647982  0.08802498  1  0.061446  0  0.107327  0.105673  0  0.997681  0
H  H28  1  0.53795236  0.18763305  0.24336089  1  0.092313  0  0.118584  0.132789  0  0.99306  0
H  H29  1  0.29450741  0.31239287  0.75659361  1  0.119364  0  0.118573  0.132156  0  0.993555  0
H  H30  1  0.46204617  0.81236915  0.75664025  1  0.092337  0  0.118597  0.132831  0  0.993059  0
H  H31  1  0.70548938  0.68760017  0.24340710  1  0.119422  0  0.118518  0.132084  0  0.993681  0
H  H32  1  0.77622977  0.14906400  0.10103902  1  0.084599  0  0.11713  0.127498  0  0.979958  0
H  H33  1  0.67523842  0.35071097  0.89906529  1  0.100316  0  0.117158  0.127101  0  0.980573  0
H  H34  1  0.22377172  0.85093514  0.89896224  1  0.084562  0  0.117122  0.127479  0  0.97997  0
H  H35  1  0.32475932  0.64928820  0.10093491  1  0.100281  0  0.117185  0.127143  0  0.980518  0
H  H36  1  0.70800294  0.25267893  0.37902345  1  0.222921  0  0.138242  0.134329  0  0.995631  0
H  H37  1  0.32879412  0.24724277  0.62097976  1  0.221659  0  0.138633  0.134581  0  0.99622  0
H  H38  1  0.29200295  0.74732100  0.62097693  1  0.223002  0  0.138211  0.134285  0  0.99572  0
H  H39  1  0.67120644  0.75275021  0.37902289  1  0.221614  0  0.138614  0.134565  0  0.996196  0
H  H40  1  0.93982232  0.21327713  0.24404655  1  0.166587  0  0.130573  0.124969  0  0.990285  0
H  H41  1  0.69572447  0.28639385  0.75611512  1  0.188297  0  0.130828  0.124876  0  0.990435  0
H  H42  1  0.06017857  0.78672281  0.75595330  1  0.166582  0  0.130591  0.12501  0  0.990375  0
H  H43  1  0.30427811  0.71360220  0.24388705  1  0.18843  0  0.130832  0.12493  0  0.9904  0
H  H44  1  0.00912986  0.25718506  0.39531636  1  0.127165  0  0.126343  0.1318  0  0.95395  0
H  H45  1  0.61391406  0.24272480  0.60499338  1  0.12467  0  0.126319  0.131755  0  0.953593  0
H  H46  1  0.99087539  0.74281403  0.60468685  1  0.127224  0  0.126316  0.131761  0  0.95398  0
H  H47  1  0.38608664  0.75727130  0.39500695  1  0.12463  0  0.126327  0.131787  0  0.953612  0
H  H48  1  0.91128833  0.27041576  0.45315537  1  0.107206  0  0.118872  0.122232  0  0.988419  0
H  H49  1  0.45816261  0.22977631  0.54686328  1  0.109352  0  0.118832  0.122588  0  0.988557  0
H  H50  1  0.08871635  0.72958494  0.54684475  1  0.107233  0  0.11889  0.122217  0  0.988399  0
H  H51  1  0.54183042  0.77022818  0.45313783  1  0.109316  0  0.118847  0.122639  0  0.988586  0
H  H52  1  0.81136969  0.43242636  0.46234356  1  0.103379  0  0.104263  0.11778  0  0.99108  0
H  H53  1  0.34838034  0.06757319  0.53752486  1  0.06102  0  0.104331  0.117586  0  0.991715  0
H  H54  1  0.18863952  0.56757740  0.53765680  1  0.103499  0  0.104245  0.117808  0  0.991094  0
H  H55  1  0.65160963  0.93242153  0.46247011  1  0.061152  0  0.104349  0.117589  0  0.991615  0
H  H56  1  0.04171463  0.40390077  0.31358765  1  0.078572  0  0.098868  0.107915  0  1.004548  0
H  H57  1  0.72767654  0.09588949  0.68616704  1  0.093544  0  0.098631  0.107878  0  1.004225  0
H  H58  1  0.95828309  0.59609847  0.68640992  1  0.078571  0  0.098874  0.107932  0  1.004564  0
H  H59  1  0.27231611  0.90411000  0.31382120  1  0.093019  0  0.098686  0.107974  0  1.004294  0
H  H60  1  0.80845260  0.61783032  0.45125356  1  0.097356  0  0.094829  0.108049  0  1.032895  0
H  H61  1  0.35621248  0.88214193  0.54851142  1  0.091175  0  0.094834  0.108172  0  1.032907  0
H  H62  1  0.19155530  0.38217187  0.54874804  1  0.097138  0  0.094817  0.108072  0  1.032937  0
H  H63  1  0.64378700  0.11785499  0.45148688  1  0.091234  0  0.094814  0.108128  0  1.032849  0
H  H64  1  0.03617122  0.58973045  0.30214728  1  0.129669  0  0.091341  0.114932  0  1.035848  0
H  H65  1  0.73318812  0.91005558  0.69740838  1  0.139144  0  0.091051  0.114546  0  1.036508  0
H  H66  1  0.96383144  0.41026804  0.69784986  1  0.129787  0  0.091324  0.11488  0  1.035911  0
H  H67  1  0.26680828  0.08994388  0.30258092  1  0.139448  0  0.091093  0.114588  0  1.036605  0
C  C68  1  0.21201552  0.10173831  0.83235196  1  0.515577  0  0.047785  0.096671  0  3.962386  0
C  C69  1  0.37990150  0.39848192  0.16748454  1  0.540538  0  0.047159  0.096953  0  3.964547  0
C  C70  1  0.78798469  0.89826093  0.16764544  1  0.51574  0  0.047815  0.096693  0  3.962426  0
C  C71  1  0.62009758  0.60151869  0.83251881  1  0.54042  0  0.047155  0.096978  0  3.964568  0
C  C72  1  0.32817567  0.05823634  0.75111522  1  0.486682  0  0.048353  0.098614  0  3.956666  0
C  C73  1  0.57738478  0.44173958  0.24892722  1  0.493496  0  0.047059  0.098569  0  3.958234  0
C  C74  1  0.67182590  0.94176435  0.24888533  1  0.486734  0  0.048328  0.098614  0  3.956624  0
C  C75  1  0.42261624  0.55826262  0.75107375  1  0.493044  0  0.047049  0.098517  0  3.958177  0
C  C76  1  0.31052660  0.11973796  0.91212520  1  -0.060656  0  -0.088653  -0.184862  0  3.936313  0
C  C77  1  0.39879284  0.38045152  0.08780883  1  -0.110335  0  -0.087721  -0.182831  0  3.935988  0
C  C78  1  0.68947179  0.88026203  0.08787307  1  -0.06075  0  -0.088671  -0.184923  0  3.936424  0
C  C79  1  0.60120373  0.61954916  0.91219206  1  -0.110298  0  -0.087782  -0.182949  0  3.936042  0
C  C80  1  0.43175276  0.07458328  0.82792475  1  -0.048024  0  -0.086542  -0.182523  0  3.936244  0
C  C81  1  0.60431595  0.42538889  0.17220908  1  -0.028175  0  -0.085789  -0.181964  0  3.935669  0
C  C82  1  0.56824622  0.92541590  0.17207493  1  -0.047999  0  -0.086554  -0.182462  0  3.936058  0
C  C83  1  0.39568331  0.57461563  0.82779116  1  -0.028258  0  -0.085754  -0.181849  0  3.935703  0
C  C84  1  0.42459739  0.10603844  0.91132558  1  0.004604  0  -0.001929  0.130204  0  4.052421  0
C  C85  1  0.51375837  0.39405669  0.08872738  1  -0.019164  0  -0.002133  0.128562  0  4.051969  0
C  C86  1  0.57540025  0.89395925  0.08867271  1  0.004581  0  -0.001968  0.13012  0  4.052417  0
C  C87  1  0.48623632  0.60594399  0.91127341  1  -0.019152  0  -0.002131  0.128539  0  4.052031  0
C  C88  1  0.53214384  0.12439760  0.99191345  1  -0.071229  0  -0.074644  -0.105019  0  3.960419  0
C  C89  1  0.54056035  0.37569717  0.00810123  1  -0.070786  0  -0.074923  -0.103754  0  3.95815  0
C  C90  1  0.46785343  0.87560461  0.00808733  1  -0.070991  0  -0.074608  -0.104874  0  3.960152  0
C  C91  1  0.45944120  0.62430263  0.99190362  1  -0.071213  0  -0.074966  -0.103885  0  3.958391  0
C  C92  1  0.53563989  0.13992954  0.07697355  1  -0.006636  0  -0.081089  -0.125953  0  3.980382  0
C  C93  1  0.45881664  0.36020285  0.92308630  1  -0.007061  0  -0.080849  -0.126382  0  3.978781  0
C  C94  1  0.46435624  0.86007590  0.92302105  1  -0.006776  0  -0.081131  -0.125993  0  3.980318  0
C  C95  1  0.54117682  0.63979869  0.07691071  1  -0.007528  0  -0.080884  -0.126389  0  3.978743  0
C  C96  1  0.63993213  0.16666933  0.15796492  1  -0.031383  0  0.013587  0.145987  0  4.025248  0
C  C97  1  0.48195999  0.33327869  0.84206512  1  -0.018982  0  0.013413  0.145682  0  4.023521  0
C  C98  1  0.36006572  0.83333215  0.84203464  1  -0.031582  0  0.013626  0.146075  0  4.025374  0
C  C99  1  0.51803960  0.66671961  0.15793861  1  -0.018515  0  0.013508  0.145833  0  4.023414  0
C  C100  1  0.62494164  0.19245579  0.23964375  1  0.053231  0  -0.069862  -0.158772  0  3.914143  0
C  C101  1  0.38523046  0.30744512  0.76038278  1  0.101768  0  -0.069728  -0.157576  0  3.914109  0
C  C102  1  0.37506060  0.80754562  0.76035837  1  0.053128  0  -0.069864  -0.158775  0  3.914021  0
C  C103  1  0.61476654  0.69255170  0.23961920  1  0.10171  0  -0.069715  -0.15756  0  3.914414  0
C  C104  1  0.75599086  0.17261283  0.15999063  1  0.02909  0  -0.074164  -0.164057  0  3.928548  0
C  C105  1  0.59600185  0.32718016  0.84009744  1  -0.009838  0  -0.07382  -0.162645  0  3.927114  0
C  C106  1  0.24400884  0.82738781  0.84001158  1  0.029265  0  -0.074117  -0.163962  0  3.928473  0
C  C107  1  0.40399566  0.67281438  0.15990404  1  -0.010083  0  -0.073792  -0.162655  0  3.926952  0
C  C108  1  0.71958661  0.22851450  0.31639161  1  0.370981  0  0.074428  0.063638  0  3.820407  0
C  C109  1  0.40303987  0.27136893  0.68363169  1  0.353257  0  0.075418  0.064032  0  3.823021  0
C  C110  1  0.28041007  0.77148942  0.68360257  1  0.371069  0  0.074469  0.063597  0  3.82035  0
C  C111  1  0.59696077  0.72862557  0.31637111  1  0.353558  0  0.075392  0.064053  0  3.822905  0
C  C112  1  0.84842211  0.20851473  0.23848615  1  0.44752  0  0.068711  0.057171  0  3.857913  0
C  C113  1  0.60987235  0.29123053  0.76161731  1  0.416872  0  0.068534  0.056192  0  3.856735  0
C  C114  1  0.15157633  0.79148596  0.76151396  1  0.44752  0  0.068675  0.057035  0  3.857906  0
C  C115  1  0.39012707  0.70876477  0.23838434  1  0.416949  0  0.068496  0.056124  0  3.856771  0
C  C116  1  0.92612595  0.29053225  0.39360815  1  0.222308  0  -0.045373  -0.13951  0  3.837349  0
C  C117  1  0.53236842  0.20944358  0.60643304  1  0.222709  0  -0.04509  -0.139025  0  3.83806  0
C  C118  1  0.07387818  0.70947000  0.60639151  1  0.222261  0  -0.0454  -0.139469  0  3.837193  0
C  C119  1  0.46762741  0.79055570  0.39356268  1  0.222761  0  -0.04517  -0.139225  0  3.838089  0
C  C120  1  0.92409749  0.40428137  0.38646240  1  -0.01822  0  -0.017115  0.083202  0  3.985423  0
C  C121  1  0.53710698  0.09564432  0.61337830  1  -0.047928  0  -0.017349  0.081753  0  3.98711  0
C  C122  1  0.07590978  0.59572079  0.61354033  1  -0.018334  0  -0.017115  0.083143  0  3.985487  0
C  C123  1  0.46288388  0.90435670  0.38661002  1  -0.048198  0  -0.017247  0.081895  0  3.98718  0
C  C124  1  0.85865281  0.46549632  0.42498497  1  -0.067737  0  -0.092882  -0.138149  0  3.976026  0
C  C125  1  0.43298001  0.03445687  0.57481681  1  -0.009587  0  -0.092604  -0.136726  0  3.974799  0
C  C126  1  0.14135386  0.53450666  0.57501547  1  -0.067961  0  -0.092861  -0.138141  0  3.975895  0
C  C127  1  0.56701257  0.96554017  0.42517735  1  -0.009517  0  -0.092653  -0.136845  0  3.974693  0
C  C128  1  0.98644522  0.44961288  0.34104290  1  -0.078937  0  -0.097383  -0.144785  0  3.981187  0
C  C129  1  0.64482375  0.05023267  0.65869846  1  -0.077043  0  -0.096998  -0.144277  0  3.981571  0
C  C130  1  0.01355402  0.55039171  0.65895471  1  -0.078951  0  -0.097431  -0.144843  0  3.981358  0
C  C131  1  0.35516760  0.94976607  0.34128935  1  -0.076284  0  -0.097128  -0.144407  0  3.981954  0
C  C132  1  0.85686943  0.57048592  0.41898666  1  -0.048655  0  -0.08985  -0.094076  0  3.981443  0
C  C133  1  0.43703009  0.92942832  0.58071193  1  -0.051815  0  -0.08997  -0.094416  0  3.98192  0
C  C134  1  0.14313653  0.42951559  0.58101213  1  -0.048484  0  -0.089835  -0.094115  0  3.981443  0
C  C135  1  0.56296630  0.07057028  0.41928081  1  -0.051883  0  -0.089906  -0.094215  0  3.98178  0
C  C136  1  0.98386098  0.55461533  0.33448397  1  -0.018104  0  -0.088727  -0.087065  0  3.962034  0
C  C137  1  0.64859442  0.94522114  0.66513927  1  -0.037973  0  -0.088811  -0.087297  0  3.964259  0
C  C138  1  0.01614194  0.44538769  0.66551542  1  -0.021619  0  -0.088631  -0.086913  0  3.962073  0
C  C139  1  0.35140077  0.05477908  0.33485064  1  -0.038633  0  -0.08887  -0.087446  0  3.964363  0
C  C140  1  0.91911396  0.61604161  0.37370481  1  -0.059445  0  -0.026157  -0.044688  0  3.972752  0
C  C141  1  0.54449859  0.88382672  0.62589717  1  -0.039238  0  -0.025906  -0.044836  0  3.973967  0
C  C142  1  0.08088637  0.38395992  0.62629283  1  -0.055363  0  -0.026204  -0.04473  0  3.97286  0
C  C143  1  0.45549844  0.11617184  0.37409707  1  -0.039121  0  -0.025868  -0.044832  0  3.973928  0
C  C144  1  0.92187617  0.73045249  0.37248655  1  1.526452  0  0.175143  0.535604  0  4.26268  0
C  C145  1  0.54835662  0.76940034  0.62709654  1  1.528596  0  0.175343  0.536355  0  4.260684  0
C  C146  1  0.07812802  0.26955044  0.62751582  1  1.526027  0  0.175097  0.535516  0  4.262536  0
C  C147  1  0.45164663  0.23059737  0.37290114  1  1.528611  0  0.175354  0.536443  0  4.260632  0
N  N148  1  0.22055080  0.07173835  0.75305711  1  -1.207811  0  -0.318354  -0.221177  0  3.478351  0
N  N149  1  0.46772594  0.42832245  0.24686125  1  -1.202859  0  -0.317602  -0.221453  0  3.480334  0
N  N150  1  0.77944749  0.92826014  0.24694012  1  -1.207802  0  -0.318338  -0.221179  0  3.478491  0
N  N151  1  0.53227739  0.57167587  0.75314178  1  -1.202822  0  -0.317569  -0.221385  0  3.480319  0
N  N152  1  0.82866521  0.23865163  0.31408147  1  -1.204228  0  -0.20201  0.10651  0  3.723286  0
N  N153  1  0.51444038  0.26120409  0.68597621  1  -1.21384  0  -0.203399  0.105695  0  3.724576  0
N  N154  1  0.17133612  0.76135671  0.68591926  1  -1.204329  0  -0.201979  0.10664  0  3.723004  0
N  N155  1  0.48555961  0.73879048  0.31402422  1  -1.214059  0  -0.203376  0.10568  0  3.724483  0
Cl  Cl156  1  0.95426511  0.95838864  0.71071428  1  -0.677727  0  -0.379831  -0.572998  0  1.012712  0
Cl  Cl157  1  0.24383778  0.54144747  0.28903368  1  -0.677974  0  -0.379543  -0.57287  0  1.013392  0
Cl  Cl158  1  0.04573330  0.04161124  0.28928750  1  -0.677696  0  -0.379839  -0.572998  0  1.012665  0
Cl  Cl159  1  0.75616501  0.45855237  0.71096978  1  -0.677952  0  -0.379547  -0.57285  0  1.0134  0
Cl  Cl160  1  0.86166239  0.06391153  0.46306346  1  -0.632788  0  -0.288986  -0.487017  0  1.312988  0
Cl  Cl161  1  0.39829784  0.43604184  0.53685254  1  -0.633793  0  -0.289266  -0.487132  0  1.310664  0
Cl  Cl162  1  0.13833668  0.93608912  0.53693813  1  -0.632796  0  -0.288995  -0.487027  0  1.31301  0
Cl  Cl163  1  0.60170728  0.56395498  0.46314954  1  -0.633808  0  -0.289273  -0.487144  0  1.310669  0
O  O164  1  0.86359700  0.78332856  0.41052944  1  -1.181789  0  -0.342477  -0.568465  0  2.162097  0
O  O165  1  0.45193922  0.71647067  0.58945603  1  -1.184162  0  -0.342426  -0.568973  0  2.161308  0
O  O166  1  0.13640459  0.21667294  0.58946943  1  -1.181799  0  -0.342471  -0.568493  0  2.161891  0
O  O167  1  0.54806350  0.28352763  0.41054814  1  -1.184278  0  -0.342418  -0.568993  0  2.161294  0
O  O168  1  0.98492980  0.76948312  0.33465775  1  -1.156567  0  -0.349933  -0.552541  0  2.168825  0
O  O169  1  0.64933734  0.73044311  0.66456333  1  -1.159663  0  -0.350152  -0.552587  0  2.170478  0
O  O170  1  0.01507117  0.23051835  0.66534226  1  -1.156566  0  -0.34988  -0.552438  0  2.168799  0
O  O171  1  0.35066863  0.26955837  0.33543633  1  -1.159649  0  -0.35018  -0.552669  0  2.170488  0
