# generated using pymatgen
data_CdBH23C27N3(O2F)2
_symmetry_space_group_name_H-M   'P 1'
_cell_length_a   15.29831519
_cell_length_b   15.29829754
_cell_length_c   16.57293999
_cell_angle_alpha   84.05124715
_cell_angle_beta   84.05123119
_cell_angle_gamma   89.71420392
_symmetry_Int_Tables_number   1
_chemical_formula_structural   CdBH23C27N3(O2F)2
_chemical_formula_sum   'Cd4 B4 H92 C108 N12 O16 F8'
_cell_volume   3836.97447772
_cell_formula_units_Z   4
loop_
 _symmetry_equiv_pos_site_id
 _symmetry_equiv_pos_as_xyz
  1  'x, y, z'
loop_
 _atom_site_type_symbol
 _atom_site_label
 _atom_site_symmetry_multiplicity
 _atom_site_fract_x
 _atom_site_fract_y
 _atom_site_fract_z
 _atom_site_occupancy
 _atom_site_pbe_bader_charge
 _atom_site_pbe_bader_spin_density
 _atom_site_pbe_cm5_charge
 _atom_site_pbe_ddec_charge
 _atom_site_pbe_ddec_spin_density
 _atom_site_pbe_ddec_sum_bond_order
 _atom_site_pbe_magmom
Cd  Cd0  1  0.86634670  0.11437004  0.33976236  1  1.245277  0  0.759408  0.875414  0  2.347552  0
Cd  Cd1  1  0.88563165  0.13365239  0.16023274  1  1.260004  0  0.759405  0.875439  0  2.347701  0
Cd  Cd2  1  0.13366246  0.88563078  0.66022712  1  1.260047  0  0.759394  0.87543  0  2.347489  0
Cd  Cd3  1  0.11437609  0.86633131  0.83976387  1  1.245174  0  0.759308  0.87533  0  2.347689  0
B  B4  1  0.39099132  0.08819419  0.14196361  1  2.31699  0  0.070951  0.801355  0  3.321253  0
B  B5  1  0.91180972  0.60900941  0.35803846  1  2.317005  0  0.070933  0.801259  0  3.32139  0
B  B6  1  0.60900729  0.91180985  0.85803680  1  2.31702  0  0.070931  0.801168  0  3.321516  0
B  B7  1  0.08819283  0.39099201  0.64196002  1  2.31707  0  0.070949  0.801217  0  3.321539  0
H  H8  1  0.74850476  0.13573294  0.75901824  1  0.089213  0  0.103293  0.10824  0  0.964735  0
H  H9  1  0.86426829  0.25149841  0.74098303  1  0.089162  0  0.103269  0.108235  0  0.964799  0
H  H10  1  0.25149515  0.86426716  0.24098241  1  0.089222  0  0.103292  0.108253  0  0.96474  0
H  H11  1  0.13573096  0.74850234  0.25901883  1  0.089182  0  0.103282  0.108231  0  0.964816  0
H  H12  1  0.82841119  0.05212913  0.76642240  1  0.051625  0  0.098182  0.104422  0  1.00756  0
H  H13  1  0.94787287  0.17159237  0.73357813  1  0.051629  0  0.098182  0.104448  0  1.007537  0
H  H14  1  0.17158871  0.94787162  0.23357880  1  0.05165  0  0.098172  0.104443  0  1.007539  0
H  H15  1  0.05212836  0.82840839  0.26642234  1  0.051629  0  0.098181  0.10443  0  1.007565  0
H  H16  1  0.75393640  0.23723956  0.61981472  1  0.048817  0  0.115547  0.123386  0  0.978131  0
H  H17  1  0.76276457  0.24606631  0.88018816  1  0.048884  0  0.115533  0.123398  0  0.978121  0
H  H18  1  0.24606417  0.76276185  0.38018636  1  0.048818  0  0.115525  0.12338  0  0.978165  0
H  H19  1  0.23723599  0.75393116  0.11981267  1  0.04885  0  0.115523  0.123409  0  0.978113  0
H  H20  1  0.78246737  0.23436758  0.46844712  1  0.12921  0  0.126317  0.102627  0  0.980278  0
H  H21  1  0.76563614  0.21753379  0.03155609  1  0.129181  0  0.126327  0.102638  0  0.980252  0
H  H22  1  0.21753254  0.76563382  0.53155462  1  0.129187  0  0.126315  0.102627  0  0.980257  0
H  H23  1  0.23436509  0.78246501  0.96844275  1  0.12915  0  0.126303  0.102594  0  0.980259  0
H  H24  1  0.91857571  0.00029021  0.49514429  1  0.111423  0  0.121545  0.092391  0  0.997293  0
H  H25  1  0.99971273  0.08142317  0.00485551  1  0.111363  0  0.121548  0.092416  0  0.99723  0
H  H26  1  0.08142290  0.99971121  0.50485455  1  0.111454  0  0.121564  0.092401  0  0.997262  0
H  H27  1  0.00028718  0.91857693  0.99514453  1  0.111407  0  0.121556  0.092388  0  0.997233  0
H  H28  1  0.90421819  0.99739277  0.64694192  1  0.132605  0  0.110437  0.129467  0  1.030043  0
H  H29  1  0.00260929  0.09578335  0.85305714  1  0.132706  0  0.110464  0.129545  0  1.030037  0
H  H30  1  0.09578238  0.00260668  0.35305753  1  0.132607  0  0.11047  0.129541  0  1.03005  0
H  H31  1  0.99738865  0.90421544  0.14694200  1  0.132686  0  0.110456  0.129496  0  1.03012  0
H  H32  1  0.19848561  0.13642086  0.03974692  1  0.085643  0  0.10126  0.152852  0  1.008915  0
H  H33  1  0.86358073  0.80151385  0.46025249  1  0.085607  0  0.101224  0.152831  0  1.008985  0
H  H34  1  0.80151298  0.86357858  0.96025331  1  0.08564  0  0.10125  0.15283  0  1.0089  0
H  H35  1  0.13641986  0.19848758  0.53974496  1  0.085571  0  0.101253  0.152832  0  1.008912  0
H  H36  1  0.15083067  0.03636584  0.08465972  1  0.06281  0  0.090168  0.134108  0  1.035475  0
H  H37  1  0.96363481  0.84916834  0.41534102  1  0.062793  0  0.090147  0.134087  0  1.035502  0
H  H38  1  0.84916858  0.96363360  0.91534044  1  0.062837  0  0.090184  0.134132  0  1.035463  0
H  H39  1  0.03636577  0.15083308  0.58465825  1  0.062841  0  0.090178  0.134135  0  1.035465  0
H  H40  1  0.26747166  0.04332256  0.05557472  1  0.074375  0  0.102071  0.152368  0  1.003525  0
H  H41  1  0.95667833  0.73252748  0.44442536  1  0.074337  0  0.102095  0.152415  0  1.003485  0
H  H42  1  0.73252693  0.95667754  0.94442665  1  0.074325  0  0.102084  0.152402  0  1.003463  0
H  H43  1  0.04332159  0.26747329  0.55557342  1  0.074315  0  0.10208  0.152399  0  1.003465  0
H  H44  1  0.08901779  0.19157333  0.36485174  1  0.074816  0  0.093827  0.149906  0  1.016393  0
H  H45  1  0.80842731  0.91098314  0.13514946  1  0.074791  0  0.093834  0.14994  0  1.016381  0
H  H46  1  0.91098015  0.80842743  0.63514782  1  0.074867  0  0.093813  0.149873  0  1.016397  0
H  H47  1  0.19157195  0.08901762  0.86485119  1  0.074828  0  0.093788  0.14982  0  1.016407  0
H  H48  1  0.18968364  0.24483110  0.37780732  1  0.059366  0  0.094331  0.136971  0  1.000701  0
H  H49  1  0.75516982  0.81031762  0.12219443  1  0.059447  0  0.094329  0.136958  0  1.000774  0
H  H50  1  0.81031627  0.75516834  0.62219279  1  0.059557  0  0.094373  0.13703  0  1.000777  0
H  H51  1  0.24483010  0.18968379  0.87780611  1  0.059491  0  0.094329  0.136969  0  1.000689  0
H  H52  1  0.16903824  0.13664164  0.42190053  1  0.049055  0  0.090344  0.124232  0  1.037544  0
H  H53  1  0.86335921  0.83096206  0.07810069  1  0.049155  0  0.090327  0.124211  0  1.037586  0
H  H54  1  0.83096102  0.86335846  0.57809897  1  0.049036  0  0.090339  0.124222  0  1.037554  0
H  H55  1  0.13663939  0.16903936  0.92189996  1  0.049144  0  0.090336  0.124203  0  1.037581  0
H  H56  1  0.36676760  0.29978178  0.37390758  1  0.05186  0  0.104356  0.102856  0  0.990425  0
H  H57  1  0.70021695  0.63323240  0.12609145  1  0.051932  0  0.104346  0.10283  0  0.990492  0
H  H58  1  0.63323100  0.70021898  0.62609253  1  0.051966  0  0.104353  0.102839  0  0.990405  0
H  H59  1  0.29978230  0.36676771  0.87390806  1  0.051945  0  0.10435  0.102841  0  0.990475  0
H  H60  1  0.33962868  0.32859521  0.51950351  1  0.079523  0  0.105104  0.104198  0  0.989048  0
H  H61  1  0.67140207  0.66036964  0.98049626  1  0.079466  0  0.105104  0.104193  0  0.98902  0
H  H62  1  0.66037058  0.67140686  0.48049702  1  0.07955  0  0.105102  0.10413  0  0.989046  0
H  H63  1  0.32859324  0.33963046  0.01950421  1  0.079551  0  0.105097  0.104133  0  0.989062  0
H  H64  1  0.31051187  0.20406545  0.62799998  1  0.061942  0  0.102091  0.10066  0  0.996018  0
H  H65  1  0.79593126  0.68948756  0.87199852  1  0.061908  0  0.102071  0.100631  0  0.995984  0
H  H66  1  0.68948739  0.79593465  0.37199953  1  0.061936  0  0.102087  0.100642  0  0.996029  0
H  H67  1  0.20406406  0.31051254  0.12800074  1  0.061931  0  0.102106  0.100688  0  0.995983  0
H  H68  1  0.30632570  0.05053895  0.59052659  1  0.12103  0  0.102694  0.111684  0  1.012113  0
H  H69  1  0.94945829  0.69367471  0.90947355  1  0.121112  0  0.102682  0.111677  0  1.012049  0
H  H70  1  0.69367356  0.94946181  0.40947286  1  0.121035  0  0.102691  0.111664  0  1.012046  0
H  H71  1  0.05053834  0.30632475  0.09052504  1  0.121069  0  0.10267  0.111649  0  1.012052  0
H  H72  1  0.33122235  0.02264738  0.44464439  1  0.055856  0  0.100449  0.100102  0  1.003551  0
H  H73  1  0.97735015  0.66877598  0.05535666  1  0.05595  0  0.100464  0.100083  0  1.003578  0
H  H74  1  0.66877559  0.97735272  0.55535583  1  0.055861  0  0.100454  0.100076  0  1.003578  0
H  H75  1  0.02264845  0.33122281  0.94464181  1  0.055886  0  0.100452  0.100056  0  1.003547  0
H  H76  1  0.62153205  0.14046659  0.39899139  1  0.100641  0  0.091165  0.140689  0  1.035548  0
H  H77  1  0.85953203  0.37846753  0.10101003  1  0.100642  0  0.091148  0.14068  0  1.035575  0
H  H78  1  0.37846850  0.85953153  0.60101120  1  0.100625  0  0.091196  0.140811  0  1.035604  0
H  H79  1  0.14046789  0.62153258  0.89899002  1  0.100644  0  0.091197  0.14078  0  1.03551  0
H  H80  1  0.51389450  0.10450391  0.44011645  1  0.060864  0  0.092536  0.133137  0  1.008793  0
H  H81  1  0.89549505  0.48610500  0.05988616  1  0.060929  0  0.092516  0.133124  0  1.008748  0
H  H82  1  0.48610473  0.89549421  0.55988626  1  0.060942  0  0.092545  0.13316  0  1.008775  0
H  H83  1  0.10450485  0.51389444  0.94011455  1  0.060918  0  0.092534  0.133149  0  1.008749  0
H  H84  1  0.53183649  0.21578836  0.40437528  1  0.034289  0  0.09179  0.130102  0  1.004989  0
H  H85  1  0.78421078  0.46816225  0.09562620  1  0.034301  0  0.091803  0.130141  0  1.004951  0
H  H86  1  0.46816210  0.78421107  0.59562676  1  0.03429  0  0.091801  0.130128  0  1.004994  0
H  H87  1  0.21578847  0.53183654  0.90437343  1  0.034301  0  0.091785  0.130106  0  1.005003  0
H  H88  1  0.55738736  0.01399920  0.08104802  1  0.098534  0  0.107587  0.160655  0  0.979603  0
H  H89  1  0.98600190  0.44261123  0.41895324  1  0.098504  0  0.107561  0.160643  0  0.979606  0
H  H90  1  0.44261189  0.98599959  0.91895221  1  0.098545  0  0.10758  0.160662  0  0.979596  0
H  H91  1  0.01399933  0.55738887  0.58104668  1  0.098542  0  0.107576  0.160657  0  0.979577  0
H  H92  1  0.65881214  0.06854875  0.09150700  1  0.035416  0  0.095288  0.147192  0  1.022455  0
H  H93  1  0.93145195  0.34118724  0.40849362  1  0.035392  0  0.095255  0.147131  0  1.022512  0
H  H94  1  0.34118776  0.93145003  0.90849437  1  0.035399  0  0.095275  0.147166  0  1.022487  0
H  H95  1  0.06854993  0.65881221  0.59150571  1  0.035413  0  0.095279  0.147162  0  1.022465  0
H  H96  1  0.57116883  0.12599772  0.04634805  1  0.062192  0  0.10453  0.154942  0  0.979667  0
H  H97  1  0.87400308  0.42883094  0.45365194  1  0.06217  0  0.104519  0.154923  0  0.979657  0
H  H98  1  0.42883174  0.87400239  0.95365193  1  0.062168  0  0.104521  0.154928  0  0.979656  0
H  H99  1  0.12599813  0.57116718  0.54634877  1  0.062194  0  0.104523  0.154916  0  0.979661  0
C  C100  1  0.81605806  0.11811130  0.73714601  1  -0.064725  0  -0.150654  -0.19332  0  3.912424  0
C  C101  1  0.88189077  0.18394531  0.76285636  1  -0.046603  0  -0.150669  -0.193408  0  3.912504  0
C  C102  1  0.18394119  0.88188748  0.26285422  1  -0.064731  0  -0.150649  -0.193381  0  3.912474  0
C  C103  1  0.11810850  0.81605546  0.23714248  1  -0.046639  0  -0.150654  -0.193351  0  3.912549  0
C  C104  1  0.82611562  0.11677466  0.64637173  1  -0.020187  0  0.020452  0.173967  0  3.942311  0
C  C105  1  0.88322908  0.17388894  0.85363097  1  -0.019517  0  0.020489  0.174026  0  3.942281  0
C  C106  1  0.17388363  0.88322479  0.35362843  1  -0.020388  0  0.020397  0.173854  0  3.942366  0
C  C107  1  0.11677149  0.82611248  0.14636950  1  -0.019499  0  0.02047  0.174024  0  3.942242  0
C  C108  1  0.79165285  0.18374688  0.59483709  1  -0.017246  0  -0.079658  -0.184576  0  3.946193  0
C  C109  1  0.81625560  0.20835049  0.90516647  1  -0.017259  0  -0.079612  -0.184524  0  3.946135  0
C  C110  1  0.20834706  0.81625191  0.40516308  1  -0.017033  0  -0.079629  -0.1845  0  3.946133  0
C  C111  1  0.18374497  0.79165026  0.09483527  1  -0.017268  0  -0.079604  -0.184562  0  3.946104  0
C  C112  1  0.80633741  0.18249584  0.51084395  1  0.465834  0  0.051823  0.096319  0  3.957524  0
C  C113  1  0.81751050  0.19366694  0.98915855  1  0.465662  0  0.051766  0.096261  0  3.957632  0
C  C114  1  0.19366251  0.81750557  0.48915658  1  0.466049  0  0.051827  0.0963  0  3.957506  0
C  C115  1  0.18249137  0.80633316  0.01084252  1  0.465778  0  0.051826  0.096367  0  3.957495  0
C  C116  1  0.88421262  0.05229976  0.52574559  1  0.459707  0  0.05042  0.094855  0  3.957198  0
C  C117  1  0.94770453  0.11578859  0.97425434  1  0.459693  0  0.050513  0.094972  0  3.956876  0
C  C118  1  0.11578665  0.94770167  0.47425259  1  0.459619  0  0.050494  0.095013  0  3.957085  0
C  C119  1  0.05229802  0.88421217  0.02574480  1  0.459644  0  0.050438  0.094959  0  3.956991  0
C  C120  1  0.87443648  0.05045391  0.61014289  1  -0.005572  0  -0.079541  -0.181124  0  3.919291  0
C  C121  1  0.94954755  0.12556495  0.88985727  1  -0.005972  0  -0.079587  -0.181284  0  3.919437  0
C  C122  1  0.12556343  0.94954553  0.38985661  1  -0.005607  0  -0.079559  -0.181218  0  3.919369  0
C  C123  1  0.05045106  0.87443582  0.11014102  1  -0.005945  0  -0.079576  -0.181218  0  3.919319  0
C  C124  1  0.06110873  0.12381046  0.22128986  1  1.53961  0  0.203735  0.613019  0  4.204043  0
C  C125  1  0.87618821  0.93889112  0.27871584  1  1.53962  0  0.203659  0.612916  0  4.203997  0
C  C126  1  0.93888987  0.87619292  0.77871242  1  1.539808  0  0.203721  0.612973  0  4.203826  0
C  C127  1  0.12380843  0.06110964  0.72128384  1  1.539667  0  0.203667  0.612955  0  4.203928  0
C  C128  1  0.20979514  0.07754320  0.08123882  1  -0.046908  0  -0.235608  -0.454203  0  3.943505  0
C  C129  1  0.92245821  0.79020364  0.41876126  1  -0.046821  0  -0.235617  -0.45424  0  3.943589  0
C  C130  1  0.79020280  0.92245756  0.91876134  1  -0.046884  0  -0.235641  -0.454229  0  3.943494  0
C  C131  1  0.07754237  0.20979778  0.58123860  1  -0.046816  0  -0.235638  -0.454234  0  3.94354  0
C  C132  1  0.22204784  0.10410896  0.16302502  1  0.438007  0  0.143436  0.311217  0  3.891725  0
C  C133  1  0.89589219  0.77795156  0.33697443  1  0.437964  0  0.143437  0.3112  0  3.891773  0
C  C134  1  0.77794879  0.89589114  0.83697593  1  0.437972  0  0.14348  0.311194  0  3.891708  0
C  C135  1  0.10410839  0.22204920  0.66302429  1  0.437938  0  0.14345  0.311195  0  3.891795  0
C  C136  1  0.15705345  0.12713073  0.22527949  1  0.027368  0  -0.043226  -0.263018  0  3.961441  0
C  C137  1  0.87286919  0.84294572  0.27472132  1  0.027526  0  -0.043184  -0.262939  0  3.961382  0
C  C138  1  0.84294383  0.87287003  0.77472134  1  0.027529  0  -0.043182  -0.262907  0  3.961145  0
C  C139  1  0.12713007  0.15705439  0.72527758  1  0.027527  0  -0.04316  -0.262943  0  3.96131  0
C  C140  1  0.20060779  0.14844927  0.29171876  1  -0.002827  0  0.004848  0.116938  0  3.927499  0
C  C141  1  0.85155082  0.79939152  0.20828202  1  -0.002955  0  0.004898  0.116995  0  3.927529  0
C  C142  1  0.79938950  0.85155083  0.70828153  1  -0.002898  0  0.004846  0.11691  0  3.927525  0
C  C143  1  0.14844843  0.20060662  0.79171707  1  -0.002979  0  0.004862  0.117029  0  3.927561  0
C  C144  1  0.15950405  0.18240927  0.36794339  1  -0.067571  0  -0.245845  -0.418853  0  3.980129  0
C  C145  1  0.81759183  0.84049657  0.13205658  1  -0.067704  0  -0.245828  -0.418846  0  3.980232  0
C  C146  1  0.84049389  0.81759148  0.63205738  1  -0.067759  0  -0.245855  -0.418836  0  3.98018  0
C  C147  1  0.18240744  0.15950551  0.86794213  1  -0.067745  0  -0.245829  -0.418767  0  3.980143  0
C  C148  1  0.29188598  0.13527251  0.26916033  1  0.321057  0  0.080665  0.052034  0  4.011332  0
C  C149  1  0.86472901  0.70811468  0.23083897  1  0.320978  0  0.080652  0.052017  0  4.011282  0
C  C150  1  0.70811262  0.86472760  0.73083984  1  0.321042  0  0.080668  0.052003  0  4.011379  0
C  C151  1  0.13527355  0.29188675  0.76915951  1  0.321113  0  0.080652  0.051914  0  4.01136  0
C  C152  1  0.36492501  0.14083556  0.31345611  1  0.028318  0  0.036415  0.014574  0  3.951726  0
C  C153  1  0.85916482  0.63507424  0.18654341  1  0.028464  0  0.036384  0.014543  0  3.951514  0
C  C154  1  0.63507358  0.85916453  0.68654467  1  0.028333  0  0.036356  0.014561  0  3.951711  0
C  C155  1  0.14083707  0.36492587  0.81345464  1  0.02832  0  0.036423  0.014658  0  3.951744  0
C  C156  1  0.35085642  0.15938938  0.40020319  1  0.011969  0  -0.003058  0.078776  0  4.001331  0
C  C157  1  0.84060652  0.64914358  0.09979789  1  0.011871  0  -0.003062  0.078828  0  4.001473  0
C  C158  1  0.64914152  0.84061006  0.59979710  1  0.012138  0  -0.003045  0.078748  0  4.001391  0
C  C159  1  0.15939142  0.35085521  0.90020186  1  0.011949  0  -0.003034  0.078819  0  4.001397  0
C  C160  1  0.35374373  0.24539565  0.42163334  1  -0.043279  0  -0.088468  -0.139027  0  3.99595  0
C  C161  1  0.75460241  0.64625636  0.07836633  1  -0.043064  0  -0.088462  -0.13903  0  3.996249  0
C  C162  1  0.64625487  0.75460511  0.57836616  1  -0.043592  0  -0.088501  -0.13902  0  3.996118  0
C  C163  1  0.24539685  0.35374440  0.92163371  1  -0.043065  0  -0.0885  -0.139122  0  3.996119  0
C  C164  1  0.33916303  0.26130948  0.50336602  1  -0.02509  0  -0.088049  -0.08062  0  4.027834  0
C  C165  1  0.73868809  0.66083543  0.99663430  1  -0.025392  0  -0.088049  -0.080598  0  4.02778  0
C  C166  1  0.66083688  0.73869062  0.49663463  1  -0.025111  0  -0.088032  -0.080497  0  4.027786  0
C  C167  1  0.26130788  0.33916664  0.00336714  1  -0.025402  0  -0.087992  -0.0804  0  4.027712  0
C  C168  1  0.32257144  0.19142134  0.56426160  1  -0.089758  0  -0.089431  -0.083464  0  4.00874  0
C  C169  1  0.80857658  0.67742852  0.93573854  1  -0.089749  0  -0.089411  -0.083472  0  4.008688  0
C  C170  1  0.67742847  0.80857876  0.43573845  1  -0.089719  0  -0.089429  -0.083497  0  4.008631  0
C  C171  1  0.19142005  0.32257224  0.06426175  1  -0.089762  0  -0.089472  -0.083597  0  4.008689  0
C  C172  1  0.31996888  0.10533109  0.54337361  1  -0.069421  0  -0.086826  -0.071043  0  3.994749  0
C  C173  1  0.89466535  0.68002995  0.95662797  1  -0.068989  0  -0.086807  -0.071013  0  3.994791  0
C  C174  1  0.68002906  0.89466901  0.45662662  1  -0.069441  0  -0.086809  -0.071006  0  3.994663  0
C  C175  1  0.10533128  0.31996950  0.04337124  1  -0.069406  0  -0.086782  -0.071003  0  3.994592  0
C  C176  1  0.33373677  0.08956922  0.46155910  1  -0.043518  0  -0.089332  -0.140029  0  3.980718  0
C  C177  1  0.91042740  0.66626242  0.03844137  1  -0.043938  0  -0.089355  -0.140023  0  3.980814  0
C  C178  1  0.66626183  0.91043088  0.53844107  1  -0.043484  0  -0.089344  -0.139991  0  3.980742  0
C  C179  1  0.08957054  0.33373637  0.96155716  1  -0.043538  0  -0.089357  -0.139957  0  3.980652  0
C  C180  1  0.44995679  0.12574466  0.27791582  1  0.334363  0  0.084364  0.056015  0  4.015278  0
C  C181  1  0.87425767  0.55004228  0.22208533  1  0.334458  0  0.084339  0.055963  0  4.015162  0
C  C182  1  0.55004180  0.87425609  0.72208550  1  0.33436  0  0.084329  0.055913  0  4.015247  0
C  C183  1  0.12574486  0.44995716  0.77791454  1  0.334608  0  0.084343  0.055955  0  4.015341  0
C  C184  1  0.53352516  0.12950737  0.30931200  1  0.02049  0  0.00827  0.126575  0  3.90576  0
C  C185  1  0.87049044  0.46647393  0.19069015  1  0.020481  0  0.00831  0.126622  0  3.90573  0
C  C186  1  0.46647409  0.87049141  0.69068943  1  0.020462  0  0.008344  0.126692  0  3.905859  0
C  C187  1  0.12951142  0.53352353  0.80931117  1  0.020229  0  0.008254  0.126598  0  3.905857  0
C  C188  1  0.55145101  0.14868459  0.39263663  1  -0.065737  0  -0.244572  -0.41172  0  3.979453  0
C  C189  1  0.85131444  0.44854852  0.10736477  1  -0.065769  0  -0.244536  -0.411715  0  3.979355  0
C  C190  1  0.44854823  0.85131354  0.60736366  1  -0.065808  0  -0.244623  -0.411903  0  3.979537  0
C  C191  1  0.14868547  0.55145158  0.89263528  1  -0.06578  0  -0.244581  -0.411831  0  3.979418  0
C  C192  1  0.59657216  0.11414611  0.24445513  1  -0.008399  0  -0.035849  -0.239918  0  3.925198  0
C  C193  1  0.88585650  0.40342717  0.25554715  1  -0.008328  0  -0.035912  -0.239936  0  3.925209  0
C  C194  1  0.40342973  0.88585399  0.75554474  1  -0.008434  0  -0.035911  -0.239917  0  3.925343  0
C  C195  1  0.11414865  0.59657030  0.74445326  1  -0.008635  0  -0.035808  -0.239832  0  3.925282  0
C  C196  1  0.55133424  0.09900820  0.17594489  1  0.437208  0  0.149736  0.328002  0  3.857231  0
C  C197  1  0.90099334  0.44866427  0.32405757  1  0.437136  0  0.149699  0.328031  0  3.85723  0
C  C198  1  0.44866567  0.90099256  0.82405570  1  0.437204  0  0.149715  0.327957  0  3.857251  0
C  C199  1  0.09901051  0.55133452  0.67594284  1  0.43755  0  0.149632  0.327837  0  3.857441  0
C  C200  1  0.58747082  0.07528955  0.09440294  1  0.007067  0  -0.23007  -0.458304  0  3.945561  0
C  C201  1  0.92471172  0.41252870  0.40559883  1  0.007062  0  -0.229958  -0.458169  0  3.945453  0
C  C202  1  0.41252777  0.92471055  0.90559904  1  0.007055  0  -0.230018  -0.458227  0  3.94543  0
C  C203  1  0.07529015  0.58747074  0.59440230  1  0.006913  0  -0.23  -0.458179  0  3.945462  0
C  C204  1  0.69335703  0.11732735  0.24458447  1  1.551012  0  0.209799  0.622431  0  4.200024  0
C  C205  1  0.88267808  0.30663957  0.25541597  1  1.551009  0  0.209871  0.622531  0  4.200148  0
C  C206  1  0.30664483  0.88266751  0.75541407  1  1.551149  0  0.209768  0.62231  0  4.200329  0
C  C207  1  0.11732706  0.69335920  0.74458794  1  1.551142  0  0.209949  0.622509  0  4.200293  0
N  N208  1  0.85131895  0.11729085  0.47686929  1  -1.24455  0  -0.338529  -0.238283  0  3.531042  0
N  N209  1  0.88271463  0.14868440  0.02313171  1  -1.244356  0  -0.338631  -0.238394  0  3.531031  0
N  N210  1  0.14868032  0.88271058  0.52312828  1  -1.244645  0  -0.338604  -0.238355  0  3.531139  0
N  N211  1  0.11728792  0.85131702  0.97686798  1  -1.244501  0  -0.338572  -0.238382  0  3.531028  0
N  N212  1  0.46417947  0.10566306  0.19690873  1  -1.412003  0  -0.227912  -0.321772  0  3.62128  0
N  N213  1  0.89434030  0.53582005  0.30309228  1  -1.412025  0  -0.227881  -0.321835  0  3.621309  0
N  N214  1  0.53581979  0.89433769  0.80309253  1  -1.41204  0  -0.227881  -0.321722  0  3.621387  0
N  N215  1  0.10566289  0.46417940  0.69690753  1  -1.412001  0  -0.227893  -0.321708  0  3.621258  0
N  N216  1  0.30187192  0.10913232  0.19011126  1  -1.42326  0  -0.228099  -0.320433  0  3.627066  0
N  N217  1  0.89086997  0.69812783  0.30988865  1  -1.423265  0  -0.228158  -0.320468  0  3.626993  0
N  N218  1  0.69812603  0.89086976  0.80988879  1  -1.423332  0  -0.228143  -0.320368  0  3.627001  0
N  N219  1  0.10913259  0.30187360  0.69010983  1  -1.423279  0  -0.22816  -0.320444  0  3.62711  0
O  O220  1  0.03352199  0.12246364  0.15121057  1  -1.143029  0  -0.32822  -0.547002  0  2.258446  0
O  O221  1  0.87753154  0.96647401  0.34879219  1  -1.143162  0  -0.328209  -0.546915  0  2.258528  0
O  O222  1  0.96647792  0.87753711  0.84879183  1  -1.143051  0  -0.328289  -0.547048  0  2.258397  0
O  O223  1  0.12246441  0.03352346  0.65120907  1  -1.14317  0  -0.328231  -0.547001  0  2.258616  0
O  O224  1  0.01214388  0.12061120  0.28898955  1  -1.182662  0  -0.333729  -0.580228  0  2.314599  0
O  O225  1  0.87938850  0.98785818  0.21101285  1  -1.182526  0  -0.333692  -0.58025  0  2.314443  0
O  O226  1  0.98785472  0.87939217  0.71101333  1  -1.182709  0  -0.333684  -0.580251  0  2.314462  0
O  O227  1  0.12060879  0.01214324  0.78898732  1  -1.182491  0  -0.333697  -0.580258  0  2.314302  0
O  O228  1  0.73807922  0.14171475  0.17644662  1  -1.159963  0  -0.33106  -0.5651  0  2.279547  0
O  O229  1  0.85829053  0.26192183  0.32354800  1  -1.15991  0  -0.331082  -0.565119  0  2.279923  0
O  O230  1  0.26192526  0.85828010  0.82355349  1  -1.159976  0  -0.331035  -0.565097  0  2.279612  0
O  O231  1  0.14171133  0.73807498  0.67645459  1  -1.159842  0  -0.331133  -0.56517  0  2.279816  0
O  O232  1  0.72519122  0.09668333  0.31206028  1  -1.160567  0  -0.325289  -0.557708  0  2.291821  0
O  O233  1  0.90332022  0.27480558  0.18793608  1  -1.160698  0  -0.325307  -0.557779  0  2.291831  0
O  O234  1  0.27481457  0.90330824  0.68793820  1  -1.1607  0  -0.325241  -0.557584  0  2.292243  0
O  O235  1  0.09668618  0.72518398  0.81206977  1  -1.160804  0  -0.3253  -0.557649  0  2.292077  0
F  F236  1  0.40276652  0.14349021  0.06816380  1  -0.828221  0  -0.156144  -0.400707  0  1.172836  0
F  F237  1  0.85651395  0.59723633  0.43183745  1  -0.828258  0  -0.156106  -0.40064  0  1.172875  0
F  F238  1  0.59723933  0.85651710  0.93183867  1  -0.828259  0  -0.156102  -0.400608  0  1.172892  0
F  F239  1  0.14349122  0.40276311  0.56816278  1  -0.828276  0  -0.156154  -0.400669  0  1.172897  0
F  F240  1  0.39242465  0.99903182  0.12611640  1  -0.827425  0  -0.160027  -0.408215  0  1.168328  0
F  F241  1  0.00097184  0.60757783  0.37388327  1  -0.827479  0  -0.160018  -0.408197  0  1.168315  0
F  F242  1  0.60757333  0.00097291  0.87387857  1  -0.827454  0  -0.160012  -0.408171  0  1.168336  0
F  F243  1  0.99903336  0.39242427  0.62611129  1  -0.827541  0  -0.159976  -0.40816  0  1.168413  0
