# generated using pymatgen
data_ZnH16C27(NO3)2
_symmetry_space_group_name_H-M   'P 1'
_cell_length_a   12.71688163
_cell_length_b   14.64202516
_cell_length_c   14.64199736
_cell_angle_alpha   77.21081035
_cell_angle_beta   86.54985706
_cell_angle_gamma   86.55000892
_symmetry_Int_Tables_number   1
_chemical_formula_structural   ZnH16C27(NO3)2
_chemical_formula_sum   'Zn4 H64 C108 N8 O24'
_cell_volume   2650.82029767
_cell_formula_units_Z   4
loop_
 _symmetry_equiv_pos_site_id
 _symmetry_equiv_pos_as_xyz
  1  'x, y, z'
loop_
 _atom_site_type_symbol
 _atom_site_label
 _atom_site_symmetry_multiplicity
 _atom_site_fract_x
 _atom_site_fract_y
 _atom_site_fract_z
 _atom_site_occupancy
 _atom_site_pbe_bader_charge
 _atom_site_pbe_bader_spin_density
 _atom_site_pbe_cm5_charge
 _atom_site_pbe_ddec_charge
 _atom_site_pbe_ddec_spin_density
 _atom_site_pbe_ddec_sum_bond_order
 _atom_site_pbe_magmom
Zn  Zn0  1  0.83877894  0.93914991  0.54248605  1  1.295239  0  0.674268  0.817068  0  2.3246  0
Zn  Zn1  1  0.66121974  0.45751457  0.06085091  1  1.295257  0  0.674299  0.817119  0  2.324585  0
Zn  Zn2  1  0.16121628  0.06085179  0.45751405  1  1.295252  0  0.674295  0.817127  0  2.324565  0
Zn  Zn3  1  0.33878031  0.54248502  0.93914940  1  1.29524  0  0.674293  0.817124  0  2.324567  0
H  H4  1  0.88820669  0.91379424  0.82698343  1  0.123498  0  0.106321  0.113405  0  1.009451  0
H  H5  1  0.61179432  0.17301619  0.08620616  1  0.123495  0  0.106323  0.113383  0  1.009494  0
H  H6  1  0.11179089  0.08620746  0.17301518  1  0.123465  0  0.106324  0.113404  0  1.009481  0
H  H7  1  0.38820494  0.82698341  0.91379283  1  0.123495  0  0.106322  0.113371  0  1.00948  0
H  H8  1  0.85807200  0.86130682  0.23064226  1  0.132345  0  0.114529  0.121701  0  0.979178  0
H  H9  1  0.64192648  0.76935634  0.13869442  1  0.132377  0  0.114534  0.121735  0  0.979172  0
H  H10  1  0.14192644  0.13869350  0.76935388  1  0.13239  0  0.114524  0.121738  0  0.979192  0
H  H11  1  0.35807300  0.23063905  0.86130684  1  0.132356  0  0.11455  0.121706  0  0.979197  0
H  H12  1  0.85538389  0.20647358  0.08940036  1  0.080556  0  0.098136  0.100263  0  1.028609  0
H  H13  1  0.64461440  0.91060061  0.79352785  1  0.080609  0  0.098129  0.10025  0  1.028632  0
H  H14  1  0.14461616  0.79352601  0.91060132  1  0.080558  0  0.098125  0.100261  0  1.028598  0
H  H15  1  0.35538242  0.08940039  0.20647368  1  0.080568  0  0.098111  0.100251  0  1.028576  0
H  H16  1  0.84578156  0.14649326  0.26372029  1  0.080755  0  0.097914  0.094278  0  1.03327  0
H  H17  1  0.65421232  0.73628092  0.85350597  1  0.080775  0  0.097926  0.094311  0  1.033229  0
H  H18  1  0.15421219  0.85350635  0.73627966  1  0.080941  0  0.097928  0.094311  0  1.033252  0
H  H19  1  0.34578136  0.26372010  0.14649095  1  0.080799  0  0.097917  0.094289  0  1.03325  0
H  H20  1  0.87453344  0.23049358  0.90666686  1  0.03881  0  0.100629  0.104831  0  1.004665  0
H  H21  1  0.62546953  0.09333182  0.76950756  1  0.038805  0  0.100606  0.104793  0  1.004754  0
H  H22  1  0.12546962  0.76950882  0.09333131  1  0.038834  0  0.10064  0.104865  0  1.004683  0
H  H23  1  0.37453608  0.90666707  0.23049398  1  0.038779  0  0.100634  0.104832  0  1.004711  0
H  H24  1  0.88582046  0.21402150  0.73920080  1  0.111305  0  0.104434  0.105381  0  0.996851  0
H  H25  1  0.61417890  0.26079886  0.78597889  1  0.111336  0  0.104433  0.105418  0  0.996743  0
H  H26  1  0.11417787  0.78598091  0.26079830  1  0.11137  0  0.104454  0.105472  0  0.996734  0
H  H27  1  0.38582352  0.73920074  0.21402062  1  0.111307  0  0.10444  0.105356  0  0.996828  0
H  H28  1  0.52770697  0.20488065  0.55266691  1  0.10327  0  0.112722  0.118045  0  0.979044  0
H  H29  1  0.97229103  0.44733484  0.79511992  1  0.103264  0  0.112746  0.118079  0  0.979033  0
H  H30  1  0.47228753  0.79511965  0.44733627  1  0.103251  0  0.112752  0.118092  0  0.97908  0
H  H31  1  0.02770883  0.55266826  0.20488100  1  0.10326  0  0.112771  0.118129  0  0.979038  0
H  H32  1  0.86053092  0.72111159  0.58982917  1  0.098883  0  0.1251  0.096304  0  0.97907  0
H  H33  1  0.63946978  0.41017073  0.27889168  1  0.0989  0  0.125107  0.096296  0  0.979097  0
H  H34  1  0.13946892  0.27889221  0.41016955  1  0.098879  0  0.125113  0.096294  0  0.979072  0
H  H35  1  0.36053264  0.58982887  0.72110919  1  0.098839  0  0.12512  0.096308  0  0.979034  0
H  H36  1  0.70904894  0.14513038  0.50701502  1  0.090846  0  0.119879  0.089829  0  0.989021  0
H  H37  1  0.79094961  0.49298586  0.85487048  1  0.090839  0  0.119866  0.089822  0  0.989013  0
H  H38  1  0.29094710  0.85487061  0.49298929  1  0.090757  0  0.119861  0.089783  0  0.988965  0
H  H39  1  0.20904966  0.50701373  0.14513192  1  0.090835  0  0.119853  0.0898  0  0.989018  0
H  H40  1  0.74485597  0.58838978  0.66677103  1  0.08453  0  0.114465  0.120167  0  0.981228  0
H  H41  1  0.75514567  0.33322880  0.41161277  1  0.08449  0  0.11446  0.120177  0  0.981199  0
H  H42  1  0.25514709  0.41161262  0.33322988  1  0.08448  0  0.114473  0.120183  0  0.9812  0
H  H43  1  0.24485825  0.66677219  0.58838840  1  0.084483  0  0.114487  0.120152  0  0.981203  0
H  H44  1  0.56093877  0.62680500  0.72363490  1  0.163114  0  0.111203  0.121824  0  1.017911  0
H  H45  1  0.93906248  0.27636465  0.37319460  1  0.16327  0  0.111196  0.121812  0  1.017964  0
H  H46  1  0.43906294  0.37319320  0.27636495  1  0.163308  0  0.111186  0.121799  0  1.017951  0
H  H47  1  0.06094069  0.72363565  0.62680472  1  0.163164  0  0.111215  0.121867  0  1.017911  0
H  H48  1  0.39698298  0.08947355  0.63685750  1  0.170435  0  0.120354  0.135316  0  0.976563  0
H  H49  1  0.10301757  0.36314578  0.91052476  1  0.170416  0  0.12037  0.135301  0  0.976567  0
H  H50  1  0.60301475  0.91052534  0.36314787  1  0.170375  0  0.120358  0.135319  0  0.97661  0
H  H51  1  0.89698387  0.63685732  0.08947334  1  0.17045  0  0.120346  0.1353  0  0.976611  0
H  H52  1  0.35954066  0.92010692  0.70838647  1  0.130509  0  0.109539  0.117517  0  1.016112  0
H  H53  1  0.14045998  0.29161491  0.07989150  1  0.130491  0  0.109537  0.11754  0  1.016051  0
H  H54  1  0.64045954  0.07988987  0.29161718  1  0.130369  0  0.109564  0.117584  0  1.015946  0
H  H55  1  0.85954243  0.70838469  0.92010801  1  0.130554  0  0.109555  0.117557  0  1.01604  0
H  H56  1  0.41848954  0.75196305  0.73873078  1  0.094694  0  0.107079  0.114272  0  1.009825  0
H  H57  1  0.08151117  0.26126920  0.24803526  1  0.094698  0  0.107077  0.114275  0  1.009852  0
H  H58  1  0.58150987  0.24803374  0.26126881  1  0.094733  0  0.107109  0.11433  0  1.009802  0
H  H59  1  0.91849207  0.73872969  0.75196367  1  0.094737  0  0.107101  0.114316  0  1.009833  0
H  H60  1  0.02873067  0.86605014  0.48496832  1  0.647503  0  0.284349  0.387293  0  0.954494  0
H  H61  1  0.47126647  0.51503128  0.13394983  1  0.647647  0  0.284339  0.387267  0  0.95454  0
H  H62  1  0.97126612  0.13395157  0.51503033  1  0.647644  0  0.284316  0.387246  0  0.954572  0
H  H63  1  0.52873122  0.48496832  0.86604992  1  0.647648  0  0.284348  0.387285  0  0.954504  0
H  H64  1  0.03326966  0.89973481  0.57877758  1  0.651716  0  0.290317  0.384048  0  0.953382  0
H  H65  1  0.46672825  0.42122161  0.10026604  1  0.651666  0  0.290309  0.383999  0  0.953442  0
H  H66  1  0.96672706  0.10026830  0.42122146  1  0.651678  0  0.290348  0.384064  0  0.953347  0
H  H67  1  0.53327023  0.57877799  0.89973367  1  0.651709  0  0.290336  0.384061  0  0.95336  0
C  C68  1  0.87428203  0.08018822  0.96021721  1  -0.028248  0  9.9e-05  0.044693  0  3.994865  0
C  C69  1  0.62572166  0.03978074  0.91981477  1  -0.028659  0  6.8e-05  0.044628  0  3.995004  0
C  C70  1  0.12572178  0.91981488  0.03978077  1  -0.028675  0  8.1e-05  0.044676  0  3.994988  0
C  C71  1  0.37428083  0.96021745  0.08018640  1  -0.028571  0  0.000102  0.044691  0  3.994825  0
C  C72  1  0.87936928  0.91692832  0.02557189  1  0.931637  0  0.159343  0.35532  0  4.022363  0
C  C73  1  0.62063157  0.97442732  0.08307190  1  0.931622  0  0.159352  0.355302  0  4.022264  0
C  C74  1  0.12063002  0.08307059  0.97442588  1  0.931577  0  0.159359  0.355289  0  4.022353  0
C  C75  1  0.37936770  0.02557228  0.91692982  1  0.931589  0  0.159317  0.355311  0  4.022301  0
C  C76  1  0.86614716  0.06659305  0.06291265  1  0.027964  0  0.003628  0.054359  0  3.992095  0
C  C77  1  0.63385222  0.93709004  0.93340645  1  0.027846  0  0.003657  0.054408  0  3.992236  0
C  C78  1  0.13385375  0.93340514  0.93708997  1  0.027669  0  0.003636  0.054398  0  3.992182  0
C  C79  1  0.36614769  0.06291236  0.06659393  1  0.027849  0  0.003617  0.054384  0  3.992134  0
C  C80  1  0.88032548  0.99120691  0.93713372  1  -0.068071  0  -0.023276  -0.080102  0  4.004073  0
C  C81  1  0.61967704  0.06286497  0.00879486  1  -0.067448  0  -0.023262  -0.080087  0  4.004154  0
C  C82  1  0.11967833  0.00879620  0.06286426  1  -0.067421  0  -0.023284  -0.080124  0  4.004232  0
C  C83  1  0.38032309  0.93713323  0.99120371  1  -0.067719  0  -0.023284  -0.080076  0  4.004126  0
C  C84  1  0.86784032  0.96923833  0.10300709  1  -0.034822  0  -0.021438  -0.078401  0  3.983747  0
C  C85  1  0.63216187  0.89699491  0.03075902  1  -0.035339  0  -0.021474  -0.078444  0  3.983899  0
C  C86  1  0.13216138  0.03075986  0.89699413  1  -0.035106  0  -0.021433  -0.078453  0  3.983958  0
C  C87  1  0.36783965  0.10300679  0.96923871  1  -0.034857  0  -0.021391  -0.078434  0  3.984  0
C  C88  1  0.88572984  0.06416381  0.77376266  1  -0.046568  0  -0.018633  -0.049872  0  3.965776  0
C  C89  1  0.61427455  0.22623671  0.93583719  1  -0.046507  0  -0.018642  -0.049852  0  3.965818  0
C  C90  1  0.11427172  0.93583719  0.22623726  1  -0.046493  0  -0.018645  -0.049822  0  3.965804  0
C  C91  1  0.38572712  0.77376218  0.06416250  1  -0.046614  0  -0.018623  -0.049869  0  3.96571  0
C  C92  1  0.84070285  0.96758796  0.36039120  1  1.562086  0  0.193566  0.558225  0  4.217815  0
C  C93  1  0.65929484  0.63960853  0.03241243  1  1.561742  0  0.193665  0.558385  0  4.217573  0
C  C94  1  0.15929402  0.03241235  0.63960776  1  1.56175  0  0.193634  0.558349  0  4.217624  0
C  C95  1  0.34070288  0.36039038  0.96758542  1  1.562104  0  0.19366  0.558341  0  4.217447  0
C  C96  1  0.88501454  0.98220937  0.84490195  1  -0.010805  0  -0.068517  -0.081884  0  3.938215  0
C  C97  1  0.61498711  0.15509732  0.01779175  1  -0.010825  0  -0.068546  -0.081896  0  3.938201  0
C  C98  1  0.11498623  0.01779163  0.15509665  1  -0.010799  0  -0.068531  -0.081912  0  3.938225  0
C  C99  1  0.38501373  0.84490227  0.98220989  1  -0.010781  0  -0.068517  -0.081865  0  3.938282  0
C  C100  1  0.85903194  0.93600076  0.19910085  1  -0.020099  0  -0.057548  -0.061268  0  3.903976  0
C  C101  1  0.64096804  0.80090025  0.06399948  1  -0.020058  0  -0.057538  -0.061327  0  3.90386  0
C  C102  1  0.14096811  0.06399883  0.80090014  1  -0.020086  0  -0.05751  -0.061261  0  3.903959  0
C  C103  1  0.35903047  0.19909864  0.93600107  1  -0.020145  0  -0.057578  -0.061297  0  3.904206  0
C  C104  1  0.85103133  0.00154165  0.25670323  1  -0.017676  0  -0.016246  -0.042769  0  3.9641  0
C  C105  1  0.64896677  0.74329787  0.99845520  1  -0.017621  0  -0.016199  -0.042687  0  3.963928  0
C  C106  1  0.14896632  0.99845866  0.74329500  1  -0.017704  0  -0.016245  -0.042757  0  3.964025  0
C  C107  1  0.35103088  0.25670244  0.00153893  1  -0.017654  0  -0.016247  -0.042716  0  3.963903  0
C  C108  1  0.85755726  0.13146147  0.11963552  1  -0.11292  0  -0.085289  -0.110701  0  3.954332  0
C  C109  1  0.64244252  0.88036535  0.86853816  1  -0.112908  0  -0.085277  -0.110635  0  3.954232  0
C  C110  1  0.14244434  0.86853883  0.88036388  1  -0.112862  0  -0.085236  -0.110605  0  3.954247  0
C  C111  1  0.35755513  0.11963496  0.13146007  1  -0.112871  0  -0.085281  -0.110657  0  3.954245  0
C  C112  1  0.88833138  0.05727832  0.67296945  1  1.556138  0  0.204152  0.577682  0  4.221943  0
C  C113  1  0.61166848  0.32703034  0.94272252  1  1.555986  0  0.204172  0.577679  0  4.221841  0
C  C114  1  0.11166770  0.94272479  0.32703014  1  1.555972  0  0.204138  0.57763  0  4.221955  0
C  C115  1  0.38832996  0.67296995  0.05727909  1  1.55595  0  0.204115  0.577649  0  4.222016  0
C  C116  1  0.85137854  0.09789339  0.21683082  1  -0.038029  0  -0.075084  -0.071106  0  3.941233  0
C  C117  1  0.64861795  0.78317097  0.90210566  1  -0.038072  0  -0.075123  -0.07121  0  3.941271  0
C  C118  1  0.14861908  0.90210761  0.78316862  1  -0.038154  0  -0.075137  -0.071239  0  3.941344  0
C  C119  1  0.35138049  0.21682933  0.09789322  1  -0.03799  0  -0.075086  -0.071171  0  3.941107  0
C  C120  1  0.87702957  0.16145758  0.88996357  1  0.080641  0  -0.081974  -0.105342  0  3.958146  0
C  C121  1  0.62297262  0.11003461  0.83854194  1  0.080311  0  -0.081956  -0.105318  0  3.958082  0
C  C122  1  0.12297435  0.83854342  0.11003418  1  0.080284  0  -0.08198  -0.105387  0  3.95813  0
C  C123  1  0.37702990  0.88996289  0.16145802  1  0.080685  0  -0.081988  -0.105457  0  3.958194  0
C  C124  1  0.88346588  0.15241683  0.79674507  1  -0.073844  0  -0.069783  -0.067344  0  3.941867  0
C  C125  1  0.61653620  0.20325288  0.84758555  1  -0.074181  0  -0.069733  -0.067335  0  3.94181  0
C  C126  1  0.11653556  0.84758628  0.20325167  1  -0.074178  0  -0.06975  -0.067414  0  3.941844  0
C  C127  1  0.38346873  0.79674391  0.15241581  1  -0.073806  0  -0.069717  -0.067143  0  3.9417  0
C  C128  1  0.64498978  0.84583053  0.62584760  1  0.477134  0  0.123585  0.123666  0  3.960052  0
C  C129  1  0.85501046  0.37415252  0.15417065  1  0.477047  0  0.123563  0.123707  0  3.959921  0
C  C130  1  0.35500866  0.15416977  0.37415332  1  0.477039  0  0.123559  0.123656  0  3.960054  0
C  C131  1  0.14499128  0.62584497  0.84583004  1  0.477551  0  0.123451  0.123593  0  3.959975  0
C  C132  1  0.54827322  0.12992999  0.56904849  1  -0.033327  0  -0.08098  -0.135549  0  3.985292  0
C  C133  1  0.95172597  0.43095333  0.87006885  1  -0.033357  0  -0.081008  -0.135547  0  3.985321  0
C  C134  1  0.45172225  0.87006680  0.43095677  1  -0.033121  0  -0.081088  -0.135638  0  3.985286  0
C  C135  1  0.04827401  0.56904767  0.12993184  1  -0.033383  0  -0.081008  -0.1356  0  3.985361  0
C  C136  1  0.60992009  0.94355025  0.60658988  1  0.474987  0  0.118132  0.110483  0  3.99665  0
C  C137  1  0.89007997  0.39341142  0.05644950  1  0.475023  0  0.118128  0.110386  0  3.996596  0
C  C138  1  0.39007674  0.05645075  0.39341234  1  0.474964  0  0.118065  0.110414  0  3.99666  0
C  C139  1  0.10992012  0.60658748  0.94355027  1  0.47491  0  0.118115  0.110433  0  3.99656  0
C  C140  1  0.77918852  0.73407559  0.61372807  1  0.552823  0  0.063919  0.108928  0  3.941146  0
C  C141  1  0.72081311  0.38627071  0.26592562  1  0.552838  0  0.063897  0.108893  0  3.941271  0
C  C142  1  0.22081146  0.26592542  0.38626988  1  0.552856  0  0.063853  0.108843  0  3.941153  0
C  C143  1  0.27919088  0.61372888  0.73407517  1  0.55284  0  0.063894  0.108878  0  3.941178  0
C  C144  1  0.64963533  0.09729067  0.54293697  1  0.522426  0  0.060466  0.11043  0  3.952002  0
C  C145  1  0.85036506  0.45706390  0.90271059  1  0.522428  0  0.060467  0.110424  0  3.952081  0
C  C146  1  0.35036218  0.90271243  0.45706681  1  0.522301  0  0.060511  0.110509  0  3.952065  0
C  C147  1  0.14963578  0.54293570  0.09728900  1  0.52249  0  0.060463  0.110439  0  3.952079  0
C  C148  1  0.57407313  0.77668466  0.67098556  1  -0.007005  0  0.00027  0.041453  0  4.016239  0
C  C149  1  0.92592799  0.32901376  0.22331524  1  -0.006903  0  0.000292  0.041556  0  4.016205  0
C  C150  1  0.42592459  0.22331425  0.32901366  1  -0.006896  0  0.000332  0.041656  0  4.016084  0
C  C151  1  0.07407615  0.67098303  0.77668479  1  -0.006888  0  0.000336  0.041546  0  4.016087  0
C  C152  1  0.71404117  0.66081510  0.65645189  1  -0.066444  0  -0.082306  -0.136264  0  3.993954  0
C  C153  1  0.78596020  0.34354798  0.33918684  1  -0.066566  0  -0.082291  -0.136275  0  3.993846  0
C  C154  1  0.28596035  0.33918660  0.34354788  1  -0.066572  0  -0.082304  -0.136272  0  3.993848  0
C  C155  1  0.21404382  0.65645091  0.66081342  1  -0.066475  0  -0.082246  -0.136103  0  3.993958  0
C  C156  1  0.61182218  0.68191032  0.68623876  1  -0.091304  0  -0.060447  -0.071293  0  3.905483  0
C  C157  1  0.88818005  0.31376182  0.31808999  1  -0.091346  0  -0.060453  -0.071321  0  3.905504  0
C  C158  1  0.38817870  0.31808858  0.31376166  1  -0.091361  0  -0.060431  -0.071323  0  3.905506  0
C  C159  1  0.11182470  0.68623848  0.68190923  1  -0.091382  0  -0.060534  -0.071507  0  3.905602  0
C  C160  1  0.47601791  0.06640623  0.61536219  1  -0.113183  0  -0.04946  -0.048225  0  3.867919  0
C  C161  1  0.02398201  0.38463957  0.93359202  1  -0.113152  0  -0.049505  -0.048302  0  3.867982  0
C  C162  1  0.52397978  0.93359336  0.38464235  1  -0.113037  0  -0.049415  -0.048199  0  3.867943  0
C  C163  1  0.97601879  0.61536073  0.06640673  1  -0.113174  0  -0.049479  -0.048254  0  3.868019  0
C  C164  1  0.50594343  0.96963984  0.63546489  1  0.087378  0  0.002897  0.043984  0  3.992259  0
C  C165  1  0.99405669  0.36453865  0.03035793  1  0.087359  0  0.002964  0.044118  0  3.99214  0
C  C166  1  0.49405354  0.03035835  0.36454067  1  0.087646  0  0.002994  0.044088  0  3.992172  0
C  C167  1  0.00594332  0.63546166  0.96964086  1  0.087684  0  0.002958  0.04407  0  3.992287  0
C  C168  1  0.43757891  0.89834497  0.68376427  1  -0.103834  0  -0.072953  -0.099861  0  3.958922  0
C  C169  1  0.06242157  0.31623661  0.10165271  1  -0.103791  0  -0.072987  -0.099949  0  3.958725  0
C  C170  1  0.56241889  0.10165252  0.31623935  1  -0.103951  0  -0.07302  -0.099992  0  3.958619  0
C  C171  1  0.93758249  0.68376159  0.89834565  1  -0.104086  0  -0.072979  -0.099945  0  3.958949  0
C  C172  1  0.47024787  0.80570007  0.70051498  1  0.011509  0  -0.082806  -0.127449  0  3.973505  0
C  C173  1  0.02975282  0.29948534  0.19430026  1  0.011519  0  -0.0828  -0.127485  0  3.973453  0
C  C174  1  0.52975139  0.19429952  0.29948537  1  0.011541  0  -0.082819  -0.127541  0  3.973407  0
C  C175  1  0.97024885  0.70051356  0.80570012  1  0.011461  0  -0.082811  -0.127465  0  3.973481  0
N  N176  1  0.74589929  0.82370432  0.60021507  1  -1.231185  0  -0.310382  -0.236697  0  3.531845  0
N  N177  1  0.75410213  0.39978616  0.17629762  1  -1.231171  0  -0.31032  -0.236611  0  3.531866  0
N  N178  1  0.25410065  0.17629738  0.39978478  1  -1.231189  0  -0.310344  -0.236623  0  3.531851  0
N  N179  1  0.24589957  0.60021203  0.82370428  1  -1.231546  0  -0.310311  -0.236585  0  3.531806  0
N  N180  1  0.67941292  0.00674061  0.56130383  1  -1.218438  0  -0.30946  -0.263771  0  3.507893  0
N  N181  1  0.82058762  0.43869758  0.99325923  1  -1.218479  0  -0.309463  -0.263776  0  3.508015  0
N  N182  1  0.32058556  0.99325898  0.43869998  1  -1.218526  0  -0.309499  -0.263885  0  3.508076  0
N  N183  1  0.17941247  0.56130132  0.00674124  1  -1.218495  0  -0.309476  -0.263826  0  3.508023  0
O  O184  1  0.86357058  0.02476753  0.41246188  1  -1.184633  0  -0.33275  -0.58237  0  2.318294  0
O  O185  1  0.63642771  0.58753861  0.97523209  1  -1.184308  0  -0.332798  -0.582419  0  2.318198  0
O  O186  1  0.13642628  0.97523277  0.58753708  1  -1.184334  0  -0.332788  -0.582414  0  2.318224  0
O  O187  1  0.36357077  0.41246100  0.02476557  1  -1.184562  0  -0.3328  -0.582392  0  2.318108  0
O  O188  1  0.98872702  0.86369517  0.54730143  1  -1.275005  0  -0.575615  -0.749015  0  2.110791  0
O  O189  1  0.51127166  0.45269751  0.13630490  1  -1.275116  0  -0.575589  -0.748929  0  2.110825  0
O  O190  1  0.01127052  0.13630724  0.45269703  1  -1.275152  0  -0.5756  -0.74896  0  2.110776  0
O  O191  1  0.48872764  0.54730139  0.86369492  1  -1.275137  0  -0.575629  -0.749015  0  2.110796  0
O  O192  1  0.88796974  0.83151251  0.03272041  1  -1.068691  0  -0.254065  -0.392358  0  2.14166  0
O  O193  1  0.61203020  0.96727951  0.16849009  1  -1.068696  0  -0.254103  -0.392372  0  2.141557  0
O  O194  1  0.11202848  0.16849200  0.96727823  1  -1.068685  0  -0.254128  -0.392376  0  2.141434  0
O  O195  1  0.38796836  0.03271869  0.83151060  1  -1.068658  0  -0.254086  -0.392392  0  2.141559  0
O  O196  1  0.88003466  0.97400035  0.66000605  1  -1.177099  0  -0.334919  -0.564927  0  2.359605  0
O  O197  1  0.61996737  0.33999551  0.02599979  1  -1.176945  0  -0.334958  -0.564978  0  2.359633  0
O  O198  1  0.11996611  0.02600065  0.33999391  1  -1.17717  0  -0.334927  -0.564917  0  2.359671  0
O  O199  1  0.38003264  0.66000479  0.97400106  1  -1.176903  0  -0.334955  -0.565018  0  2.359646  0
O  O200  1  0.80976377  0.88697433  0.39537819  1  -1.165552  0  -0.325061  -0.542979  0  2.105998  0
O  O201  1  0.69023470  0.60462319  0.11302644  1  -1.16552  0  -0.325113  -0.543079  0  2.105906  0
O  O202  1  0.19023632  0.11302456  0.60462363  1  -1.16553  0  -0.325104  -0.543047  0  2.105902  0
O  O203  1  0.30976381  0.39537572  0.88697137  1  -1.165613  0  -0.32511  -0.543057  0  2.105817  0
O  O204  1  0.89712169  0.13092638  0.60959113  1  -1.195541  0  -0.33232  -0.57123  0  2.156275  0
O  O205  1  0.60288011  0.39040725  0.86907307  1  -1.195539  0  -0.332337  -0.571236  0  2.156157  0
O  O206  1  0.10287993  0.86907322  0.39040705  1  -1.195311  0  -0.332304  -0.571204  0  2.156152  0
O  O207  1  0.39712156  0.60959165  0.13092457  1  -1.19555  0  -0.332287  -0.57118  0  2.156344  0
