# generated using pymatgen
data_ZnH14C26(NO2)2
_symmetry_space_group_name_H-M   'P 1'
_cell_length_a   9.00277630
_cell_length_b   12.73295595
_cell_length_c   13.26599530
_cell_angle_alpha   91.58703166
_cell_angle_beta   93.22909465
_cell_angle_gamma   102.27923707
_symmetry_Int_Tables_number   1
_chemical_formula_structural   ZnH14C26(NO2)2
_chemical_formula_sum   'Zn2 H28 C52 N4 O8'
_cell_volume   1482.33073868
_cell_formula_units_Z   2
loop_
 _symmetry_equiv_pos_site_id
 _symmetry_equiv_pos_as_xyz
  1  'x, y, z'
loop_
 _atom_site_type_symbol
 _atom_site_label
 _atom_site_symmetry_multiplicity
 _atom_site_fract_x
 _atom_site_fract_y
 _atom_site_fract_z
 _atom_site_occupancy
 _atom_site_hle17_bader_spin_density
 _atom_site_hle17_ddec_charge
 _atom_site_hle17_ddec_spin_density
 _atom_site_hle17_ddec_sum_bond_order
 _atom_site_hle17_magmom
 _atom_site_hse06_10hf_bader_spin_density
 _atom_site_hse06_10hf_ddec_charge
 _atom_site_hse06_10hf_ddec_spin_density
 _atom_site_hse06_10hf_ddec_sum_bond_order
 _atom_site_hse06_10hf_magmom
 _atom_site_hse06_bader_spin_density
 _atom_site_hse06_ddec_charge
 _atom_site_hse06_ddec_spin_density
 _atom_site_hse06_ddec_sum_bond_order
 _atom_site_hse06_magmom
 _atom_site_pbe_bader_spin_density
 _atom_site_pbe_cm5_charge
 _atom_site_pbe_ddec_charge
 _atom_site_pbe_ddec_spin_density
 _atom_site_pbe_ddec_sum_bond_order
 _atom_site_pbe_magmom
Zn  Zn0  1  0.15515587  0.40334535  0.03762494  1  0  1.038364  0  1.817064  0  0  0.855943  0  2.270237  0  0  0.907326  0  2.213966  0  0  0.684669  0.819269  0  2.309218  0
Zn  Zn1  1  0.84484263  0.59666111  0.96237288  1  0  1.038246  0  1.817197  0  0  0.855866  0  2.270367  0  0  0.90725  0  2.214098  0  0  0.684643  0.819192  0  2.309346  0
H  H2  1  0.41094141  0.54987432  0.93288051  1  0  0.101523  0  0.943461  0  0  0.107571  0  1.007763  0  0  0.110508  0  1.005291  0  0  0.122697  0.105351  0  1.009694  0
H  H3  1  0.58905799  0.45014026  0.06710633  1  0  0.101563  0  0.943428  0  0  0.107635  0  1.007709  0  0  0.110575  0  1.005232  0  0  0.122717  0.105413  0  1.009642  0
H  H4  1  0.09885276  0.82295472  0.05138964  1  0  0.119686  0  0.981499  0  0  0.12662  0  1.050529  0  0  0.130808  0  1.046451  0  0  0.104194  0.123504  0  1.053601  0
H  H5  1  0.90114643  0.17705013  0.94860964  1  0  0.119692  0  0.981498  0  0  0.126667  0  1.050477  0  0  0.130857  0  1.046395  0  0  0.104212  0.123552  0  1.053548  0
H  H6  1  0.10212084  0.26906762  0.84156427  1  0  0.093042  0  0.932003  0  0  0.102343  0  0.991709  0  0  0.104726  0  0.989844  0  0  0.122311  0.100472  0  0.99325  0
H  H7  1  0.89787369  0.73094355  0.15844117  1  0  0.092989  0  0.932079  0  0  0.102397  0  0.99168  0  0  0.104782  0  0.989814  0  0  0.122353  0.100513  0  0.993218  0
H  H8  1  0.11996086  0.02054920  0.05346876  1  0  0.105615  0  0.94671  0  0  0.115203  0  1.010401  0  0  0.119131  0  1.006687  0  0  0.10393  0.112311  0  1.013137  0
H  H9  1  0.88003651  0.97945725  0.94652828  1  0  0.105673  0  0.94672  0  0  0.11526  0  1.010413  0  0  0.11919  0  1.006693  0  0  0.103943  0.112366  0  1.013149  0
H  H10  1  0.49594040  0.69537706  0.12063737  1  0  0.090567  0  0.988658  0  0  0.097008  0  1.058543  0  0  0.099406  0  1.058659  0  0  0.095444  0.095246  0  1.05863  0
H  H11  1  0.50405799  0.30462855  0.87936494  1  0  0.09053  0  0.988598  0  0  0.096939  0  1.058517  0  0  0.099333  0  1.058635  0  0  0.095412  0.095179  0  1.058602  0
H  H12  1  0.65231369  0.88009236  0.15730297  1  0  0.088721  0  0.947418  0  0  0.100249  0  1.006092  0  0  0.103434  0  1.004984  0  0  0.097723  0.097969  0  1.006996  0
H  H13  1  0.34768479  0.11991410  0.84269410  1  0  0.088724  0  0.947358  0  0  0.100251  0  1.006039  0  0  0.103435  0  1.004932  0  0  0.097729  0.097961  0  1.006954  0
H  H14  1  0.90069583  0.24532997  0.12538454  1  0  0.093106  0  0.943615  0  0  0.100912  0  1.007689  0  0  0.10285  0  1.006563  0  0  0.122361  0.099402  0  1.008589  0
H  H15  1  0.09930569  0.75465963  0.87461572  1  0  0.09306  0  0.943562  0  0  0.100949  0  1.007562  0  0  0.102887  0  1.006435  0  0  0.122405  0.099435  0  1.008463  0
H  H16  1  0.54694869  0.23466372  0.13824077  1  0  0.091547  0  0.963355  0  0  0.099226  0  1.031626  0  0  0.102368  0  1.029885  0  0  0.097998  0.096895  0  1.033074  0
H  H17  1  0.45305290  0.76534197  0.86175634  1  0  0.091542  0  0.963398  0  0  0.099237  0  1.031638  0  0  0.102378  0  1.0299  0  0  0.098008  0.096903  0  1.033083  0
H  H18  1  0.72790743  0.23497292  0.26914475  1  0  0.114338  0  0.955449  0  0  0.125329  0  1.01235  0  0  0.128385  0  1.0117  0  0  0.11344  0.123131  0  1.01296  0
H  H19  1  0.27210259  0.76500708  0.73086064  1  0  0.114384  0  0.955527  0  0  0.125395  0  1.012407  0  0  0.128451  0  1.011754  0  0  0.113489  0.123196  0  1.013017  0
H  H20  1  0.54810234  0.55128078  0.77690211  1  0  0.134152  0  0.941712  0  0  0.142233  0  0.99988  0  0  0.146419  0  0.997521  0  0  0.116428  0.139176  0  1.001808  0
H  H21  1  0.45189381  0.44871852  0.22308558  1  0  0.13392  0  0.941778  0  0  0.14207  0  0.999879  0  0  0.146256  0  0.997522  0  0  0.11634  0.139011  0  1.001811  0
H  H22  1  0.22880906  0.25516446  0.67891408  1  0  0.113439  0  0.930165  0  0  0.127884  0  0.977896  0  0  0.131193  0  0.977381  0  0  0.115125  0.125461  0  0.978473  0
H  H23  1  0.77119032  0.74482824  0.32109681  1  0  0.113364  0  0.930142  0  0  0.127815  0  0.977883  0  0  0.13112  0  0.977372  0  0  0.115121  0.125392  0  0.978455  0
H  H24  1  0.15532213  0.54055156  0.23233129  1  0  0.086775  0  0.940544  0  0  0.097052  0  0.998428  0  0  0.099054  0  0.99708  0  0  0.122181  0.095518  0  0.999469  0
H  H25  1  0.84465680  0.45944512  0.76766341  1  0  0.08691  0  0.940457  0  0  0.097192  0  0.998317  0  0  0.099258  0  0.996893  0  0  0.122283  0.095625  0  0.999395  0
H  H26  1  0.67123618  0.07793853  0.16363658  1  0  0.08563  0  0.951425  0  0  0.099253  0  1.00878  0  0  0.102307  0  1.007442  0  0  0.098008  0.097066  0  1.009831  0
H  H27  1  0.32876516  0.92206635  0.83635974  1  0  0.085593  0  0.951497  0  0  0.0992  0  1.008869  0  0  0.102248  0  1.007531  0  0  0.097999  0.097014  0  1.009917  0
H  H28  1  0.99436935  0.54503520  0.37912180  1  0  0.112179  0  0.938507  0  0  0.123212  0  0.993538  0  0  0.126634  0  0.992952  0  0  0.111899  0.120777  0  0.994084  0
H  H29  1  0.00562219  0.45495027  0.62088184  1  0  0.112167  0  0.938643  0  0  0.123169  0  0.993694  0  0  0.126586  0  0.993114  0  0  0.111856  0.120731  0  0.994243  0
C  C30  1  0.19530176  0.63643089  0.06605022  1  0  0.655866  0  3.903612  0  0  0.603438  0  4.198191  0  0  0.639189  0  4.188685  0  0  0.210239  0.579149  0  4.203933  0
C  C31  1  0.80469870  0.36357392  0.93395437  1  0  0.655984  0  3.903736  0  0  0.603556  0  4.19831  0  0  0.639303  0  4.188814  0  0  0.210324  0.57927  0  4.204045  0
C  C32  1  0.37273094  0.48679241  0.87425636  1  0  0.144452  0  3.656505  0  0  0.110943  0  3.913395  0  0  0.117958  0  3.929985  0  0  0.056087  0.106319  0  3.90236  0
C  C33  1  0.62726870  0.51321895  0.12573262  1  0  0.144382  0  3.656513  0  0  0.110815  0  3.913492  0  0  0.117826  0  3.930086  0  0  0.056054  0.106191  0  3.902456  0
C  C34  1  0.21940927  0.83567640  0.07577532  1  0  -0.113179  0  3.68574  0  0  -0.146506  0  3.930381  0  0  -0.144965  0  3.948805  0  0  -0.08372  -0.146895  0  3.917697  0
C  C35  1  0.78058709  0.16433001  0.92422546  1  0  -0.113264  0  3.685835  0  0  -0.146631  0  3.930476  0  0  -0.145091  0  3.948901  0  0  -0.083757  -0.147017  0  3.917789  0
C  C36  1  0.32557826  0.13585313  0.09553622  1  0  -0.062017  0  3.782691  0  0  -0.037684  0  4.014885  0  0  -0.046594  0  4.038676  0  0  -0.022554  -0.032065  0  3.998889  0
C  C37  1  0.67442407  0.86415495  0.90446251  1  0  -0.06197  0  3.782621  0  0  -0.037673  0  4.014833  0  0  -0.046582  0  4.03862  0  0  -0.022677  -0.032057  0  3.998838  0
C  C38  1  0.28756752  0.74843689  0.08606996  1  0  -0.083382  0  3.785743  0  0  -0.059225  0  4.023527  0  0  -0.068878  0  4.047178  0  0  -0.029555  -0.053047  0  4.007599  0
C  C39  1  0.71242885  0.25156951  0.91393157  1  0  -0.083353  0  3.78595  0  0  -0.059139  0  4.023645  0  0  -0.06879  0  4.04729  0  0  -0.029513  -0.05296  0  4.007718  0
C  C40  1  0.46464413  0.95873885  0.12518151  1  0  0.071497  0  3.782761  0  0  0.086506  0  4.00478  0  0  0.088943  0  4.028789  0  0  -0.0034  0.084964  0  3.988579  0
C  C41  1  0.53535478  0.04126520  0.87481623  1  0  0.071476  0  3.782835  0  0  0.086389  0  4.005004  0  0  0.088826  0  4.02901  0  0  -0.003356  0.08485  0  3.988804  0
C  C42  1  0.30572032  0.94195184  0.09384271  1  0  0.047198  0  3.794897  0  0  0.069644  0  4.019048  0  0  0.066351  0  4.044322  0  0  -0.00938  0.071547  0  4.001877  0
C  C43  1  0.69427795  0.05805381  0.90615508  1  0  0.047342  0  3.794742  0  0  0.069791  0  4.018963  0  0  0.066496  0  4.04424  0  0  -0.009349  0.071692  0  4.001794  0
C  C44  1  0.25478487  0.22990263  0.07527371  1  0  0.623396  0  3.937706  0  0  0.578381  0  4.224436  0  0  0.612396  0  4.21842  0  0  0.190198  0.555454  0  4.227449  0
C  C45  1  0.74521407  0.77010142  0.92472478  1  0  0.623355  0  3.937698  0  0  0.578399  0  4.224359  0  0  0.612415  0  4.21834  0  0  0.190238  0.555472  0  4.227375  0
C  C46  1  0.40036250  0.40203052  0.71394525  1  0  0.145271  0  3.898732  0  0  0.154321  0  4.134433  0  0  0.160617  0  4.154321  0  0  0.015927  0.150287  0  4.12072  0
C  C47  1  0.59963160  0.59796783  0.28605743  1  0  0.145089  0  3.899042  0  0  0.153991  0  4.134976  0  0  0.160282  0  4.154867  0  0  0.015889  0.149957  0  4.12126  0
C  C48  1  0.20089849  0.32931399  0.82262864  1  0  0.129342  0  3.703149  0  0  0.097937  0  3.955693  0  0  0.104102  0  3.974906  0  0  0.049879  0.093893  0  3.942697  0
C  C49  1  0.79910314  0.67069168  0.17736998  1  0  0.129348  0  3.703236  0  0  0.097857  0  3.955761  0  0  0.104021  0  3.974975  0  0  0.049925  0.093832  0  3.942746  0
C  C50  1  0.23975672  0.03238199  0.07929102  1  0  -0.097881  0  3.689269  0  0  -0.130734  0  3.931839  0  0  -0.129226  0  3.950445  0  0  -0.078091  -0.131135  0  3.919021  0
C  C51  1  0.76024469  0.96762690  0.92070621  1  0  -0.098153  0  3.689388  0  0  -0.130982  0  3.931962  0  0  -0.129478  0  3.950576  0  0  -0.078155  -0.131381  0  3.919146  0
C  C52  1  0.44510985  0.76536945  0.11548418  1  0  -0.064642  0  3.750089  0  0  -0.092835  0  4.005825  0  0  -0.091611  0  4.02681  0  0  -0.092322  -0.093495  0  3.991685  0
C  C53  1  0.55488789  0.23463776  0.88451817  1  0  -0.064563  0  3.750213  0  0  -0.092726  0  4.005916  0  0  -0.091498  0  4.026897  0  0  -0.092275  -0.093385  0  3.991775  0
C  C54  1  0.53090964  0.86770264  0.13548931  1  0  -0.119275  0  3.757381  0  0  -0.137573  0  4.009619  0  0  -0.142381  0  4.031048  0  0  -0.092577  -0.134391  0  3.995113  0
C  C55  1  0.46909159  0.13230543  0.86451015  1  0  -0.119352  0  3.757549  0  0  -0.137624  0  4.00981  0  0  -0.142431  0  4.031237  0  0  -0.092616  -0.134432  0  3.995309  0
C  C56  1  0.91607855  0.30955484  0.18360133  1  0  0.138256  0  3.686439  0  0  0.107364  0  3.933242  0  0  0.113922  0  3.952414  0  0  0.053934  0.103033  0  3.920419  0
C  C57  1  0.08392046  0.69043395  0.81639734  1  0  0.138238  0  3.686173  0  0  0.107294  0  3.932998  0  0  0.113852  0  3.952166  0  0  0.053846  0.102962  0  3.920178  0
C  C58  1  0.48499244  0.39580280  0.62849855  1  0  -0.054219  0  3.763418  0  0  -0.053579  0  4.005493  0  0  -0.057514  0  4.034625  0  0  -0.003184  -0.050876  0  3.98556  0
C  C59  1  0.51501107  0.60418602  0.37150174  1  0  -0.053778  0  3.763262  0  0  -0.053062  0  4.005365  0  0  -0.056992  0  4.0345  0  0  -0.003054  -0.050362  0  3.985428  0
C  C60  1  0.48213221  0.15209980  0.12775917  1  0  -0.066427  0  3.758331  0  0  -0.094079  0  4.015  0  0  -0.092877  0  4.035458  0  0  -0.088452  -0.094696  0  4.001155  0
C  C61  1  0.51786764  0.84790747  0.87223871  1  0  -0.066424  0  3.758362  0  0  -0.094069  0  4.015012  0  0  -0.092868  0  4.035467  0  0  -0.088444  -0.09468  0  4.001163  0
C  C62  1  0.82129900  0.30408276  0.26315592  1  0  -0.159314  0  3.672224  0  0  -0.174221  0  3.909773  0  0  -0.18199  0  3.9296  0  0  -0.074223  -0.169246  0  3.896616  0
C  C63  1  0.17870895  0.69589805  0.73684643  1  0  -0.159385  0  3.672449  0  0  -0.174357  0  3.910056  0  0  -0.182125  0  3.929881  0  0  -0.074362  -0.169379  0  3.8969  0
C  C64  1  0.66166202  0.39090765  0.48335463  1  0  -0.017039  0  4.043834  0  0  -0.014698  0  4.288541  0  0  -0.013327  0  4.314793  0  0  -0.023938  -0.015658  0  4.270665  0
C  C65  1  0.33836555  0.60908203  0.51666136  1  0  -0.016746  0  4.044479  0  0  -0.014356  0  4.28912  0  0  -0.012982  0  4.315373  0  0  -0.02383  -0.015318  0  4.271245  0
C  C66  1  0.44931318  0.48712504  0.78625604  1  0  -0.13265  0  3.636641  0  0  -0.15372  0  3.88759  0  0  -0.159863  0  3.904322  0  0  -0.06755  -0.149842  0  3.876643  0
C  C67  1  0.55068756  0.51287828  0.21373493  1  0  -0.132422  0  3.636286  0  0  -0.153486  0  3.887293  0  0  -0.159627  0  3.904031  0  0  -0.067459  -0.149611  0  3.876344  0
C  C68  1  0.56836919  0.39310209  0.55888223  1  0  -0.031312  0  4.040852  0  0  -0.029605  0  4.285181  0  0  -0.030344  0  4.312445  0  0  -0.026932  -0.029081  0  4.266618  0
C  C69  1  0.43164631  0.60688428  0.44113334  1  0  -0.031819  0  4.040725  0  0  -0.030159  0  4.285124  0  0  -0.030905  0  4.312392  0  0  -0.027119  -0.029632  0  4.266559  0
C  C70  1  0.27090774  0.32241190  0.73280626  1  0  -0.163799  0  3.695751  0  0  -0.180892  0  3.939891  0  0  -0.188258  0  3.959478  0  0  -0.074823  -0.176046  0  3.926684  0
C  C71  1  0.72909258  0.67758489  0.26719651  1  0  -0.163616  0  3.695636  0  0  -0.180669  0  3.939848  0  0  -0.18803  0  3.959438  0  0  -0.074806  -0.175823  0  3.926627  0
C  C72  1  0.05884714  0.47488625  0.24314410  1  0  0.14531  0  3.694411  0  0  0.112619  0  3.946676  0  0  0.12018  0  3.964099  0  0  0.053918  0.107695  0  3.934888  0
C  C73  1  0.94114089  0.52510328  0.75685207  1  0  0.145173  0  3.694004  0  0  0.112477  0  3.946282  0  0  0.119988  0  3.963691  0  0  0.053853  0.10758  0  3.934501  0
C  C74  1  0.54977982  0.06581114  0.14179093  1  0  -0.129347  0  3.764079  0  0  -0.148941  0  4.018727  0  0  -0.153635  0  4.040143  0  0  -0.095896  -0.145786  0  4.004117  0
C  C75  1  0.45021733  0.93419450  0.85820683  1  0  -0.129269  0  3.764296  0  0  -0.148827  0  4.018971  0  0  -0.153512  0  4.040378  0  0  -0.095907  -0.145675  0  4.004363  0
C  C76  1  0.74817866  0.38996700  0.41523202  1  0  -0.080182  0  3.779379  0  0  -0.080292  0  4.023069  0  0  -0.085209  0  4.051357  0  0  -0.014893  -0.076862  0  4.003688  0
C  C77  1  0.25183394  0.61001869  0.58476761  1  0  -0.080197  0  3.779877  0  0  -0.08035  0  4.023533  0  0  -0.08527  0  4.051818  0  0  -0.014862  -0.07692  0  4.004155  0
C  C78  1  0.84553600  0.39020750  0.33560145  1  0  0.159203  0  3.901257  0  0  0.169138  0  4.132197  0  0  0.176403  0  4.151924  0  0  0.017084  0.16439  0  4.118676  0
C  C79  1  0.15447045  0.60977569  0.66440247  1  0  0.159074  0  3.901328  0  0  0.169082  0  4.13219  0  0  0.176353  0  4.151908  0  0  0.017104  0.164334  0  4.118671  0
C  C80  1  0.96956904  0.47690414  0.32483576  1  0  -0.157629  0  3.680862  0  0  -0.175678  0  3.926006  0  0  -0.183217  0  3.945233  0  0  -0.074468  -0.170819  0  3.913115  0
C  C81  1  0.03042582  0.52308137  0.67516721  1  0  -0.157413  0  3.680741  0  0  -0.175429  0  3.925834  0  0  -0.182968  0  3.945088  0  0  -0.074337  -0.170567  0  3.91293  0
N  N82  1  0.03224463  0.39384841  0.17277079  1  0  -0.303176  0  3.242298  0  0  -0.224588  0  3.503707  0  0  -0.242548  0  3.519398  0  0  -0.309577  -0.212501  0  3.49307  0
N  N83  1  0.96774376  0.60614591  0.82722858  1  0  -0.303241  0  3.241928  0  0  -0.224673  0  3.503382  0  0  -0.242637  0  3.519094  0  0  -0.30964  -0.212585  0  3.492736  0
N  N84  1  0.25184703  0.40915588  0.89302000  1  0  -0.303358  0  3.248294  0  0  -0.225182  0  3.509718  0  0  -0.243375  0  3.527224  0  0  -0.312964  -0.212821  0  3.497775  0
N  N85  1  0.74815202  0.59085619  0.10697955  1  0  -0.303293  0  3.248555  0  0  -0.225113  0  3.510036  0  0  -0.243304  0  3.527546  0  0  -0.313059  -0.212752  0  3.498084  0
O  O86  1  0.26776140  0.55983927  0.07047458  1  0  -0.639481  0  2.073136  0  0  -0.56878  0  2.338889  0  0  -0.596548  0  2.325147  0  0  -0.316244  -0.549214  0  2.347875  0
O  O87  1  0.73223923  0.44016636  0.92952778  1  0  -0.63952  0  2.073099  0  0  -0.568854  0  2.338874  0  0  -0.596627  0  2.325139  0  0  -0.3163  -0.549287  0  2.347856  0
O  O88  1  0.05272099  0.62241327  0.04941588  1  0  -0.659578  0  2.144388  0  0  -0.603465  0  2.4354  0  0  -0.629986  0  2.420219  0  0  -0.324699  -0.584609  0  2.444914  0
O  O89  1  0.94727880  0.37758999  0.95058110  1  0  -0.659567  0  2.144445  0  0  -0.603457  0  2.43546  0  0  -0.629978  0  2.420283  0  0  -0.32468  -0.584602  0  2.444978  0
O  O90  1  0.12057548  0.21399213  0.03380945  1  0  -0.648601  0  1.974152  0  0  -0.595944  0  2.213883  0  0  -0.622477  0  2.203895  0  0  -0.329724  -0.577021  0  2.219688  0
O  O91  1  0.87942460  0.78601192  0.96618982  1  0  -0.648509  0  1.974102  0  0  -0.595894  0  2.213847  0  0  -0.622433  0  2.203869  0  0  -0.329693  -0.576956  0  2.219618  0
O  O92  1  0.33208448  0.32505919  0.09881482  1  0  -0.641974  0  1.981444  0  0  -0.582118  0  2.227886  0  0  -0.609796  0  2.217543  0  0  -0.326491  -0.562185  0  2.234223  0
O  O93  1  0.66791217  0.67494485  0.90118135  1  0  -0.64198  0  1.981425  0  0  -0.582153  0  2.227844  0  0  -0.60983  0  2.2175  0  0  -0.32651  -0.56223  0  2.234193  0
