# generated using pymatgen
data_AlH24C24(N5O2)3
_symmetry_space_group_name_H-M   'P 1'
_cell_length_a   3.86073412
_cell_length_b   16.01638375
_cell_length_c   15.86497692
_cell_angle_alpha   59.71702519
_cell_angle_beta   88.31422766
_cell_angle_gamma   87.67050310
_symmetry_Int_Tables_number   1
_chemical_formula_structural   AlH24C24(N5O2)3
_chemical_formula_sum   'Al1 H24 C24 N15 O6'
_cell_volume   846.40209675
_cell_formula_units_Z   1
loop_
 _symmetry_equiv_pos_site_id
 _symmetry_equiv_pos_as_xyz
  1  'x, y, z'
loop_
 _atom_site_type_symbol
 _atom_site_label
 _atom_site_symmetry_multiplicity
 _atom_site_fract_x
 _atom_site_fract_y
 _atom_site_fract_z
 _atom_site_occupancy
 _atom_site_pbe_bader_charge
 _atom_site_pbe_bader_spin_density
 _atom_site_pbe_cm5_charge
 _atom_site_pbe_ddec_charge
 _atom_site_pbe_ddec_spin_density
 _atom_site_pbe_ddec_sum_bond_order
 _atom_site_pbe_magmom
Al  Al0  1  0.97070643  0.49936385  0.50365270  1  2.495508  0  0.4111  1.567883  0  2.59735  0
H  H1  1  0.32911016  0.43947205  0.81064056  1  0.40775  0  0.284374  0.275979  0  0.962425  0
H  H2  1  0.02414708  0.48220858  0.72506373  1  0.429257  0  0.279895  0.274248  0  1.00627  0
H  H3  1  0.53170685  0.79903824  0.43325529  1  0.398689  0  0.282692  0.274464  0  0.968307  0
H  H4  1  0.86795357  0.72105671  0.47716777  1  0.412552  0  0.278114  0.271298  0  1.011556  0
H  H5  1  0.12078787  0.62648609  0.90642312  1  0.470921  0  0.293274  0.280827  0  1.03216  0
H  H6  1  0.01922305  0.53476125  0.88229424  1  0.453346  0  0.29308  0.290493  0  0.970918  0
H  H7  1  0.69348382  0.90909491  0.61355765  1  0.494855  0  0.2958  0.285976  0  1.032297  0
H  H8  1  0.81725489  0.88349177  0.51905285  1  0.485874  0  0.297271  0.296718  0  0.968207  0
H  H9  1  0.40201347  0.26190936  0.43608618  1  0.405476  0  0.285471  0.277791  0  0.962031  0
H  H10  1  0.08851134  0.30681097  0.47820501  1  0.431423  0  0.2811  0.27508  0  1.008214  0
H  H11  1  0.24323075  0.98029487  0.61619427  1  0.471783  0  0.293616  0.281838  0  1.027461  0
H  H12  1  0.11228554  0.09823675  0.52506524  1  0.450183  0  0.293397  0.291487  0  0.971619  0
H  H13  1  0.68922927  0.30848075  0.74105081  1  0.398132  0  0.286575  0.280974  0  0.975871  0
H  H14  1  0.98880340  0.22234597  0.79394391  1  0.420168  0  0.286048  0.281951  0  0.97223  0
H  H15  1  0.72183731  0.97003212  0.91266113  1  0.46978  0  0.29161  0.276003  0  1.04869  0
H  H16  1  0.76718323  0.08267796  0.90237034  1  0.429108  0  0.295661  0.287064  0  0.966452  0
H  H17  1  0.27045798  0.91352660  0.97703482  1  0.479211  0  0.288744  0.271391  0  1.046978  0
H  H18  1  0.24103216  0.90355483  0.08975169  1  0.392102  0  0.292113  0.279806  0  0.969546  0
H  H19  1  0.22394110  0.73043568  0.31849167  1  0.436081  0  0.287486  0.279854  0  0.981336  0
H  H20  1  0.97901884  0.80202471  0.22430916  1  0.423388  0  0.28886  0.284156  0  0.964932  0
H  H21  1  0.58370865  0.60902384  0.97663218  1  0.479433  0  0.287538  0.270097  0  1.053842  0
H  H22  1  0.67248873  0.50964970  0.08864805  1  0.432286  0  0.291765  0.279712  0  0.970391  0
H  H23  1  0.71548235  0.45426271  0.31415954  1  0.385374  0  0.287567  0.281122  0  0.978204  0
H  H24  1  0.96400017  0.48048725  0.21838626  1  0.424756  0  0.289937  0.286024  0  0.96183  0
C  C25  1  0.47554524  0.57483806  0.35190216  1  1.505118  0  0.280983  0.685157  0  4.02984  0
C  C26  1  0.44942487  0.57622680  0.57844721  1  1.539602  0  0.284929  0.685022  0  4.029749  0
C  C27  1  0.48453679  0.34843394  0.57977568  1  1.507922  0  0.282818  0.682876  0  4.034119  0
C  C28  1  0.49544972  0.93109439  0.78499326  1  0.977301  0  0.246954  0.407362  0  3.993122  0
C  C29  1  0.44308485  0.78737268  0.78451531  1  1.012173  0  0.244507  0.403517  0  4.005389  0
C  C30  1  0.45514186  0.78629342  0.93074538  1  0.995875  0  0.252658  0.414157  0  3.984751  0
C  C31  1  0.56446515  0.72491471  0.58291003  1  0.375443  0  0.048702  0.108442  0  4.039299  0
C  C32  1  0.55871107  0.77808052  0.63229731  1  0.44526  0  0.113369  0.232082  0  4.053068  0
C  C33  1  0.43259392  0.73501130  0.73146298  1  0.056855  0  -0.033702  -0.232401  0  3.902015  0
C  C34  1  0.30343059  0.63863640  0.77734493  1  0.469415  0  0.108523  0.223639  0  4.0415  0
C  C35  1  0.30350970  0.58774924  0.72587474  1  0.452338  0  0.049564  0.109855  0  4.049106  0
C  C36  1  0.43772124  0.63162509  0.63087781  1  -0.077099  0  -0.025403  -0.205724  0  4.044863  0
C  C37  1  0.38678080  0.09223367  0.63341455  1  0.334934  0  0.104948  0.215681  0  4.050298  0
C  C38  1  0.37019237  0.19443832  0.58560503  1  0.496644  0  0.054105  0.119598  0  4.048679  0
C  C39  1  0.48813693  0.24071053  0.63343026  1  -0.067601  0  -0.029366  -0.213198  0  4.036408  0
C  C40  1  0.61322396  0.18959545  0.72883415  1  0.492905  0  0.051381  0.107675  0  4.080352  0
C  C41  1  0.62530762  0.08743492  0.77845115  1  0.384851  0  0.101304  0.210433  0  4.047887  0
C  C42  1  0.51125247  0.03672689  0.73168576  1  0.13567  0  -0.032211  -0.22283  0  3.903546  0
C  C43  1  0.34355614  0.77798867  0.09207414  1  0.429842  0  0.091903  0.189464  0  4.048739  0
C  C44  1  0.34555635  0.72553312  0.19496381  1  0.396536  0  0.059646  0.131788  0  4.074476  0
C  C45  1  0.47266133  0.62966815  0.24340893  1  0.003751  0  -0.033903  -0.228135  0  4.022221  0
C  C46  1  0.58916119  0.58318652  0.19269059  1  0.443558  0  0.058057  0.127763  0  4.07922  0
C  C47  1  0.56928832  0.63301376  0.08998064  1  0.386074  0  0.093405  0.190332  0  4.044315  0
C  C48  1  0.45365132  0.73215191  0.03814797  1  0.099331  0  -0.028464  -0.206688  0  3.912594  0
N  N49  1  0.47700185  0.88468754  0.73381749  1  -1.261811  0  -0.323065  -0.430597  0  3.288775  0
N  N50  1  0.42217094  0.73703838  0.88324677  1  -1.191634  0  -0.320216  -0.417781  0  3.27961  0
N  N51  1  0.49398549  0.88293434  0.88381781  1  -1.192362  0  -0.319446  -0.418411  0  3.279547  0
N  N52  1  0.15217022  0.49447118  0.77296720  1  -1.195299  0  -0.618415  -0.63562  0  3.304057  0
N  N53  1  0.71456614  0.76914903  0.48669089  1  -1.152894  0  -0.62024  -0.637274  0  3.290576  0
N  N54  1  0.17419287  0.58970482  0.87063271  1  -1.251678  0  -0.596013  -0.593801  0  3.400676  0
N  N55  1  0.68189723  0.86887444  0.58065581  1  -1.310225  0  -0.5918  -0.587611  0  3.417744  0
N  N56  1  0.22211962  0.24558008  0.49033872  1  -1.175952  0  -0.618337  -0.635202  0  3.298929  0
N  N57  1  0.27444896  0.05303102  0.58017132  1  -1.236926  0  -0.599057  -0.596363  0  3.388044  0
N  N58  1  0.72884035  0.23538823  0.77977352  1  -1.163371  0  -0.622489  -0.63816  0  3.271759  0
N  N59  1  0.76838105  0.04188724  0.86986940  1  -1.234967  0  -0.598396  -0.591235  0  3.389757  0
N  N60  1  0.20605388  0.87175673  0.04907592  1  -1.19964  0  -0.605963  -0.598472  0  3.354369  0
N  N61  1  0.22618127  0.77450029  0.24465587  1  -1.214796  0  -0.618266  -0.632665  0  3.268461  0
N  N62  1  0.68685162  0.58258757  0.04435798  1  -1.239952  0  -0.604461  -0.593347  0  3.350773  0
N  N63  1  0.71523497  0.48544308  0.24015382  1  -1.165674  0  -0.617493  -0.634104  0  3.270534  0
O  O64  1  0.24402930  0.39327676  0.59964406  1  -1.267119  0  -0.238942  -0.601847  0  2.378791  0
O  O65  1  0.24832315  0.51043153  0.39692052  1  -1.257625  0  -0.238674  -0.602058  0  2.373638  0
O  O66  1  0.21817026  0.59503675  0.51462522  1  -1.264852  0  -0.233014  -0.600086  0  2.396692  0
O  O67  1  0.72376864  0.39193020  0.51655314  1  -1.268279  0  -0.23211  -0.596155  0  2.390762  0
O  O68  1  0.69174429  0.51212371  0.59904170  1  -1.266756  0  -0.234267  -0.599002  0  2.384887  0
O  O69  1  0.70302004  0.59421328  0.39602262  1  -1.262319  0  -0.23713  -0.598311  0  2.376396  0
