# generated using pymatgen
data_AlH18C24NO6
_symmetry_space_group_name_H-M   'P 1'
_cell_length_a   4.09916623
_cell_length_b   23.34195981
_cell_length_c   23.34212063
_cell_angle_alpha   119.99897529
_cell_angle_beta   89.99951256
_cell_angle_gamma   90.00055118
_symmetry_Int_Tables_number   1
_chemical_formula_structural   AlH18C24NO6
_chemical_formula_sum   'Al3 H54 C72 N3 O18'
_cell_volume   1934.23069791
_cell_formula_units_Z   3
loop_
 _symmetry_equiv_pos_site_id
 _symmetry_equiv_pos_as_xyz
  1  'x, y, z'
loop_
 _atom_site_type_symbol
 _atom_site_label
 _atom_site_symmetry_multiplicity
 _atom_site_fract_x
 _atom_site_fract_y
 _atom_site_fract_z
 _atom_site_occupancy
 _atom_site_pbe_bader_charge
 _atom_site_pbe_bader_spin_density
 _atom_site_pbe_cm5_charge
 _atom_site_pbe_ddec_charge
 _atom_site_pbe_ddec_spin_density
 _atom_site_pbe_ddec_sum_bond_order
 _atom_site_pbe_magmom
Al  Al0  1  0.99157487  0.99932955  0.49968314  1  2.505307  0  0.435518  1.609441  0  2.559835  0
Al  Al1  1  0.99163828  0.33363644  0.16630249  1  2.506198  0  0.435549  1.6099  0  2.55914  0
Al  Al2  1  0.99164130  0.66701231  0.83399578  1  2.506334  0  0.435676  1.609439  0  2.559769  0
H  H3  1  0.20732412  0.86814213  0.92007940  1  0.065805  0  0.106724  0.111119  0  0.981894  0
H  H4  1  0.20667797  0.97472959  0.92201426  1  0.045879  0  0.101306  0.107644  0  1.034187  0
H  H5  1  0.77168496  0.88687164  0.74278360  1  0.054644  0  0.100895  0.110157  0  1.034869  0
H  H6  1  0.77168676  0.02257547  0.94646462  1  0.050947  0  0.100926  0.110184  0  1.035012  0
H  H7  1  0.20740112  0.21859997  0.96517858  1  0.064343  0  0.106753  0.11113  0  0.98211  0
H  H8  1  0.20673729  0.11394914  0.85859752  1  0.050574  0  0.101275  0.107601  0  1.034252  0
H  H9  1  0.77171366  0.09054881  0.81074854  1  0.058377  0  0.100909  0.110154  0  1.034767  0
H  H10  1  0.20727873  0.91325339  0.61473726  1  0.076424  0  0.106693  0.111073  0  0.981912  0
H  H11  1  0.20666637  0.91131820  0.71938886  1  0.052993  0  0.10126  0.107619  0  1.034266  0
H  H12  1  0.77832910  0.42121711  0.36836143  1  0.063633  0  0.106569  0.111638  0  0.981641  0
H  H13  1  0.78695281  0.42251771  0.47457626  1  0.064765  0  0.101122  0.10731  0  1.033758  0
H  H14  1  0.22393319  0.24302711  0.38713672  1  0.063342  0  0.100843  0.110332  0  1.036427  0
H  H15  1  0.22393783  0.44619494  0.52255275  1  0.065311  0  0.100846  0.110309  0  1.036422  0
H  H16  1  0.77829038  0.46494682  0.71950997  1  0.063446  0  0.106574  0.111629  0  0.981596  0
H  H17  1  0.78688445  0.35873603  0.61459680  1  0.066216  0  0.10109  0.107247  0  1.033719  0
H  H18  1  0.22389122  0.31076997  0.59029139  1  0.059212  0  0.10091  0.110443  0  1.036428  0
H  H19  1  0.77832731  0.11380998  0.41210732  1  0.065373  0  0.106599  0.111666  0  0.98148  0
H  H20  1  0.78694893  0.21872641  0.41080544  1  0.061756  0  0.101092  0.107276  0  1.033699  0
H  H21  1  0.77909520  0.44723832  0.07890529  1  0.078132  0  0.106624  0.11109  0  0.982538  0
H  H22  1  0.78822668  0.55216603  0.07750387  1  0.061807  0  0.101268  0.107573  0  1.033653  0
H  H23  1  0.22390042  0.64430716  0.25679800  1  0.058013  0  0.100988  0.110397  0  1.036632  0
H  H24  1  0.22394726  0.57653269  0.05418902  1  0.063883  0  0.101008  0.11049  0  1.036606  0
H  H25  1  0.77899940  0.75443276  0.03499766  1  0.065476  0  0.106644  0.111092  0  0.982603  0
H  H26  1  0.78816713  0.75583919  0.14132772  1  0.060142  0  0.101367  0.10767  0  1.033784  0
H  H27  1  0.22392506  0.77915191  0.18902182  1  0.064845  0  0.10099  0.110452  0  1.036647  0
H  H28  1  0.77899484  0.79832581  0.38609682  1  0.067155  0  0.106656  0.111151  0  0.982572  0
H  H29  1  0.78816708  0.69200139  0.28117390  1  0.06402  0  0.101359  0.107628  0  1.033808  0
H  H30  1  0.71631330  0.75623566  0.67509897  1  0.015684  0  0.089745  0.123724  0  0.993338  0
H  H31  1  0.77751873  0.71761962  0.72335729  1  0.035552  0  0.095857  0.137985  0  1.01677  0
H  H32  1  0.07656787  0.77185131  0.72284986  1  0.027439  0  0.091627  0.13377  0  1.023766  0
H  H33  1  0.71630954  0.08552594  0.07709511  1  0.013426  0  0.089794  0.123786  0  0.993261  0
H  H34  1  0.77751362  0.17240138  0.11571297  1  0.044327  0  0.095857  0.138016  0  1.016784  0
H  H35  1  0.07657334  0.11766834  0.06148878  1  0.026092  0  0.0916  0.133763  0  1.023779  0
H  H36  1  0.71630563  0.15822825  0.74779782  1  0.021788  0  0.089635  0.123554  0  0.993456  0
H  H37  1  0.77745540  0.10997843  0.66092409  1  0.037062  0  0.095803  0.137814  0  1.016815  0
H  H38  1  0.07655551  0.11047745  0.71565076  1  0.04128  0  0.091643  0.13378  0  1.023772  0
H  H39  1  0.27146850  0.17582012  0.25680189  1  0.02877  0  0.089719  0.124231  0  0.993155  0
H  H40  1  0.21065342  0.22398834  0.21808882  1  0.048958  0  0.096128  0.138809  0  1.017086  0
H  H41  1  0.91201917  0.22384058  0.27258517  1  0.046449  0  0.091844  0.134645  0  1.023461  0
H  H42  1  0.27142749  0.57653068  0.58568728  1  0.037  0  0.089651  0.124154  0  0.993012  0
H  H43  1  0.21066048  0.61523741  0.67256939  1  0.053639  0  0.096149  0.138819  0  1.01704  0
H  H44  1  0.91200050  0.56073924  0.61792554  1  0.045428  0  0.091805  0.134513  0  1.023445  0
H  H45  1  0.27129520  0.24763365  0.65749930  1  0.057168  0  0.089538  0.123972  0  0.993259  0
H  H46  1  0.21054753  0.16076045  0.60932675  1  0.061957  0  0.096062  0.138742  0  1.017224  0
H  H47  1  0.91193794  0.21539245  0.60945603  1  0.04589  0  0.091839  0.134527  0  1.023361  0
H  H48  1  0.26965529  0.58126418  0.32401367  1  0.049  0  0.089189  0.123227  0  0.994721  0
H  H49  1  0.20779032  0.49438989  0.27592018  1  0.070483  0  0.095494  0.140148  0  1.011602  0
H  H50  1  0.91040781  0.54914223  0.27590514  1  0.041479  0  0.091715  0.134486  0  1.024332  0
H  H51  1  0.26961018  0.50931659  0.92393162  1  0.036225  0  0.089206  0.123102  0  0.994766  0
H  H52  1  0.20780222  0.55740675  0.88514495  1  0.066194  0  0.095528  0.140113  0  1.011695  0
H  H53  1  0.91038285  0.55743356  0.93991827  1  0.038853  0  0.091679  0.134488  0  1.024226  0
H  H54  1  0.26956069  0.90939352  0.25205084  1  0.036612  0  0.089207  0.123184  0  0.994707  0
H  H55  1  0.20782763  0.94819180  0.33893051  1  0.067578  0  0.095498  0.140115  0  1.011694  0
H  H56  1  0.91035081  0.89341683  0.28419932  1  0.039856  0  0.091693  0.134535  0  1.024165  0
C  C57  1  0.48975549  0.91212765  0.41180956  1  1.57388  0  0.28433  0.684942  0  4.04568  0
C  C58  1  0.49441617  0.00080901  0.58828736  1  1.571725  0  0.283675  0.683606  0  4.044971  0
C  C59  1  0.49003669  0.08784810  0.50031318  1  1.593124  0  0.282786  0.682591  0  4.0429  0
C  C60  1  0.49446126  0.24503759  0.07918237  1  1.565948  0  0.283614  0.683413  0  4.045111  0
C  C61  1  0.48981414  0.42151983  0.16698600  1  1.592108  0  0.284398  0.684993  0  4.045236  0
C  C62  1  0.49005373  0.33299994  0.25418926  1  1.593403  0  0.282762  0.682543  0  4.043153  0
C  C63  1  0.49444740  0.75413982  0.83251947  1  1.580679  0  0.283722  0.683514  0  4.045097  0
C  C64  1  0.48978598  0.66633985  0.92120052  1  1.585539  0  0.284443  0.685268  0  4.045195  0
C  C65  1  0.49004880  0.57912742  0.74547285  1  1.573919  0  0.282675  0.68247  0  4.043345  0
C  C66  1  0.33749062  0.87274578  0.88182597  1  -0.018243  0  -0.086897  -0.082441  0  4.017688  0
C  C67  1  0.33450133  0.93263248  0.88270757  1  0.022117  0  -0.101757  -0.18727  0  4.025144  0
C  C68  1  0.49425709  0.93896002  0.83288569  1  0.280078  0  0.093127  0.190084  0  4.031501  0
C  C69  1  0.64969329  0.88311123  0.78219785  1  -0.033551  0  -0.099552  -0.242474  0  3.953669  0
C  C70  1  0.65034065  0.82202988  0.77975456  1  0.064897  0  -0.004769  0.161412  0  3.975881  0
C  C71  1  0.49575912  0.81747279  0.83101988  1  -0.050902  0  -0.019536  -0.116481  0  3.947026  0
C  C72  1  0.64972398  0.06575046  0.95022188  1  -0.033891  0  -0.099593  -0.24237  0  3.953451  0
C  C73  1  0.65036454  0.12438898  0.01130218  1  0.046199  0  -0.004794  0.161149  0  3.975789  0
C  C74  1  0.49579056  0.18020890  0.01585114  1  -0.082745  0  -0.019541  -0.116212  0  3.946974  0
C  C75  1  0.33754120  0.17574309  0.96057542  1  0.032537  0  -0.086961  -0.082654  0  4.017912  0
C  C76  1  0.33455019  0.11673726  0.90069204  1  0.006129  0  -0.101706  -0.18713  0  4.02505  0
C  C77  1  0.49429110  0.06058872  0.89436996  1  0.312938  0  0.093182  0.189998  0  4.030979  0
C  C78  1  0.64969613  0.05113221  0.76757641  1  -0.052528  0  -0.099507  -0.242339  0  3.953455  0
C  C79  1  0.65030987  0.05357553  0.70893744  1  0.075675  0  -0.00486  0.161266  0  3.975992  0
C  C80  1  0.49573692  0.00231075  0.65312073  1  -0.096404  0  -0.019415  -0.116387  0  3.947137  0
C  C81  1  0.33746619  0.95150479  0.65759059  1  0.014533  0  -0.086994  -0.082543  0  4.017703  0
C  C82  1  0.33448858  0.95062194  0.71659436  1  0.02363  0  -0.101714  -0.187226  0  4.025209  0
C  C83  1  0.49425819  0.00044450  0.77273934  1  0.291952  0  0.093118  0.189977  0  4.031449  0
C  C84  1  0.65058005  0.38269167  0.37290778  1  -0.038396  0  -0.087487  -0.083468  0  4.01686  0
C  C85  1  0.65799970  0.38323528  0.43263998  1  0.065527  0  -0.100969  -0.186191  0  4.023052  0
C  C86  1  0.50097850  0.33319224  0.43905606  1  0.253393  0  0.092417  0.190229  0  4.029039  0
C  C87  1  0.34397336  0.28261467  0.38336954  1  -0.067839  0  -0.100033  -0.243424  0  3.952978  0
C  C88  1  0.33951040  0.28044180  0.32242113  1  0.085548  0  -0.004878  0.162616  0  3.973685  0
C  C89  1  0.49097193  0.33193705  0.31779415  1  -0.078374  0  -0.019288  -0.116865  0  3.94575  0
C  C90  1  0.34396864  0.44995302  0.56590416  1  -0.089479  0  -0.099907  -0.24303  0  3.953084  0
C  C91  1  0.33948748  0.51090230  0.62468123  1  0.053986  0  -0.004871  0.162445  0  3.973861  0
C  C92  1  0.49095857  0.51552617  0.68080112  1  -0.056613  0  -0.019387  -0.117002  0  3.946305  0
C  C93  1  0.65054333  0.46041031  0.67644174  1  -0.035435  0  -0.087446  -0.083387  0  4.016868  0
C  C94  1  0.65796416  0.40067519  0.61725080  1  0.059549  0  -0.100954  -0.186079  0  4.022632  0
C  C95  1  0.50094800  0.39426472  0.56078832  1  0.301716  0  0.092262  0.189829  0  4.029676  0
C  C96  1  0.34393492  0.26741639  0.55070575  1  -0.101315  0  -0.100094  -0.243457  0  3.953465  0
C  C97  1  0.33945192  0.20864178  0.55288384  1  0.011859  0  -0.004872  0.162362  0  3.974205  0
C  C98  1  0.49094586  0.15252414  0.50139042  1  -0.005246  0  -0.019264  -0.11689  0  3.946032  0
C  C99  1  0.65056498  0.15688610  0.45063638  1  -0.04895  0  -0.08759  -0.083579  0  4.016748  0
C  C100  1  0.65800221  0.21607723  0.45009124  1  0.029389  0  -0.100924  -0.186034  0  4.022634  0
C  C101  1  0.50095597  0.27253855  0.50013658  1  0.332933  0  0.092422  0.190146  0  4.029237  0
C  C102  1  0.65107917  0.49035779  0.11731988  1  -0.051521  0  -0.086915  -0.082578  0  4.019028  0
C  C103  1  0.65896283  0.54950879  0.11675489  1  0.029322  0  -0.101391  -0.187203  0  4.025887  0
C  C104  1  0.50197025  0.60593646  0.16679875  1  0.323783  0  0.093241  0.190683  0  4.033583  0
C  C105  1  0.34402463  0.60091930  0.21729977  1  -0.093134  0  -0.100122  -0.243865  0  3.957121  0
C  C106  1  0.33871219  0.54218176  0.21946992  1  0.062185  0  -0.00463  0.163167  0  3.975991  0
C  C107  1  0.49064281  0.48611695  0.16804962  1  -0.061832  0  -0.019192  -0.118028  0  3.949932  0
C  C108  1  0.34401183  0.61603276  0.05029428  1  -0.056495  0  -0.100043  -0.243864  0  3.957201  0
C  C109  1  0.33870107  0.61386027  0.98938382  1  0.074345  0  -0.004799  0.162861  0  3.97631  0
C  C110  1  0.49063831  0.66528131  0.98473507  1  -0.056109  0  -0.019166  -0.118105  0  3.94998  0
C  C111  1  0.65106495  0.71601414  0.03970623  1  -0.043274  0  -0.086929  -0.082369  0  4.019149  0
C  C112  1  0.65892859  0.71658206  0.09942268  1  0.02274  0  -0.101487  -0.187522  0  4.02618  0
C  C113  1  0.50195130  0.66653726  0.10581225  1  0.292249  0  0.093319  0.190886  0  4.03337  0
C  C114  1  0.34401687  0.78303996  0.23241119  1  -0.08871  0  -0.100157  -0.244031  0  3.957512  0
C  C115  1  0.33868920  0.84394423  0.29115017  1  0.051684  0  -0.004615  0.163191  0  3.976101  0
C  C116  1  0.49061403  0.84859155  0.34721832  1  -0.051857  0  -0.019327  -0.118235  0  3.950297  0
C  C117  1  0.65107215  0.79362134  0.34297292  1  -0.034224  0  -0.086929  -0.082544  0  4.019396  0
C  C118  1  0.65893208  0.73390635  0.28382438  1  0.013447  0  -0.101448  -0.18735  0  4.02625  0
C  C119  1  0.50194276  0.72752149  0.22739542  1  0.342578  0  0.093361  0.190992  0  4.033489  0
C  C120  1  0.81251245  0.76361620  0.72232071  1  -0.020288  0  -0.240154  -0.412446  0  3.948213  0
C  C121  1  0.81252301  0.12537053  0.06971997  1  -0.028428  0  -0.240154  -0.412474  0  3.948072  0
C  C122  1  0.81249561  0.11100946  0.70795180  1  -0.044567  0  -0.239957  -0.412024  0  3.948038  0
C  C123  1  0.17602333  0.22307957  0.26416371  1  -0.063561  0  -0.240397  -0.414613  0  3.948076  0
C  C124  1  0.17601673  0.56916122  0.62558403  1  -0.066669  0  -0.240248  -0.414299  0  3.947889  0
C  C125  1  0.17592219  0.20774232  0.61023772  1  -0.0956  0  -0.240084  -0.413925  0  3.947911  0
C  C126  1  0.17419690  0.54136871  0.27676823  1  -0.090524  0  -0.239927  -0.413995  0  3.951391  0
C  C127  1  0.17417477  0.55656209  0.93127654  1  -0.078153  0  -0.239897  -0.413714  0  3.951239  0
C  C128  1  0.17416457  0.90205513  0.29195937  1  -0.073961  0  -0.239915  -0.413963  0  3.951052  0
N  N129  1  0.49390252  0.99999744  0.83333203  1  -1.175409  0  -0.248308  -0.142933  0  3.611647  0
N  N130  1  0.50532431  0.33333381  0.49999397  1  -1.169882  0  -0.246838  -0.144497  0  3.608467  0
N  N131  1  0.50683869  0.66666394  0.16666651  1  -1.172478  0  -0.249681  -0.144235  0  3.615751  0
O  O132  1  0.72559582  0.07669299  0.52907184  1  -1.258584  0  -0.234465  -0.604652  0  2.386236  0
O  O133  1  0.72526759  0.95202706  0.42298158  1  -1.256709  0  -0.233912  -0.601483  0  2.371929  0
O  O134  1  0.72906837  0.97062539  0.54864208  1  -1.256741  0  -0.237627  -0.600715  0  2.337736  0
O  O135  1  0.25439330  0.04825236  0.47043689  1  -1.258957  0  -0.237753  -0.605192  0  2.350177  0
O  O136  1  0.25785932  0.02919119  0.57685420  1  -1.259871  0  -0.234814  -0.606276  0  2.386054  0
O  O137  1  0.25437038  0.92185040  0.45143605  1  -1.252648  0  -0.238097  -0.603428  0  2.337548  0
O  O138  1  0.25441902  0.36288403  0.24447666  1  -1.256774  0  -0.237751  -0.605165  0  2.35025  0
O  O139  1  0.25790033  0.25646451  0.11899483  1  -1.257493  0  -0.234723  -0.60628  0  2.385912  0
O  O140  1  0.25442690  0.38189304  0.13708507  1  -1.257101  0  -0.238134  -0.603531  0  2.33739  0
O  O141  1  0.72564328  0.30425449  0.21428386  1  -1.259372  0  -0.234318  -0.60469  0  2.386567  0
O  O142  1  0.72532936  0.41034705  0.19571263  1  -1.256576  0  -0.234026  -0.601721  0  2.371602  0
O  O143  1  0.72911224  0.28468519  0.08864670  1  -1.251179  0  -0.23768  -0.60074  0  2.337757  0
O  O144  1  0.25440509  0.58883840  0.78506828  1  -1.256076  0  -0.237636  -0.604878  0  2.350091  0
O  O145  1  0.25790134  0.71432131  0.80413401  1  -1.261538  0  -0.234818  -0.606271  0  2.385998  0
O  O146  1  0.25440742  0.69623816  0.91147197  1  -1.255332  0  -0.23822  -0.603618  0  2.337604  0
O  O147  1  0.72565604  0.61903089  0.75663310  1  -1.25899  0  -0.234419  -0.604687  0  2.386564  0
O  O148  1  0.72529990  0.63761357  0.88129994  1  -1.261423  0  -0.234011  -0.601726  0  2.371819  0
O  O149  1  0.72911612  0.74467144  0.86269476  1  -1.253832  0  -0.237722  -0.600687  0  2.338049  0
