# generated using pymatgen
data_AlH9C21(NO3)4
_symmetry_space_group_name_H-M   'P 1'
_cell_length_a   4.18376957
_cell_length_b   23.40303628
_cell_length_c   23.40319159
_cell_angle_alpha   119.99933138
_cell_angle_beta   90.00078914
_cell_angle_gamma   90.00095576
_symmetry_Int_Tables_number   1
_chemical_formula_structural   AlH9C21(NO3)4
_chemical_formula_sum   'Al3 H27 C63 N12 O36'
_cell_volume   1984.48860014
_cell_formula_units_Z   3
loop_
 _symmetry_equiv_pos_site_id
 _symmetry_equiv_pos_as_xyz
  1  'x, y, z'
loop_
 _atom_site_type_symbol
 _atom_site_label
 _atom_site_symmetry_multiplicity
 _atom_site_fract_x
 _atom_site_fract_y
 _atom_site_fract_z
 _atom_site_occupancy
 _atom_site_pbe_bader_charge
 _atom_site_pbe_bader_spin_density
 _atom_site_pbe_cm5_charge
 _atom_site_pbe_ddec_charge
 _atom_site_pbe_ddec_spin_density
 _atom_site_pbe_ddec_sum_bond_order
 _atom_site_pbe_magmom
Al  Al0  1  0.99396914  0.00078470  0.50050511  1  2.514461  0  0.446702  1.643219  0  2.500229  0
Al  Al1  1  0.99396710  0.33282184  0.16693139  1  2.51399  0  0.446626  1.642839  0  2.500635  0
Al  Al2  1  0.99397352  0.66637763  0.83255308  1  2.514202  0  0.446622  1.643416  0  2.500031  0
H  H3  1  0.23217299  0.86765938  0.92138166  1  0.094391  0  0.11871  0.128363  0  0.960264  0
H  H4  1  0.21948606  0.97412758  0.92466310  1  0.097169  0  0.110004  0.121849  0  1.016634  0
H  H5  1  0.78255868  0.88932137  0.74584730  1  0.126594  0  0.113253  0.122226  0  1.044813  0
H  H6  1  0.78260068  0.02317872  0.94399681  1  0.123502  0  0.113226  0.122357  0  1.044916  0
H  H7  1  0.23214038  0.22036517  0.96565509  1  0.096542  0  0.118772  0.128362  0  0.960183  0
H  H8  1  0.21947090  0.11718127  0.85918865  1  0.098174  0  0.110028  0.121796  0  1.01671  0
H  H9  1  0.78261538  0.08746938  0.81014684  1  0.122284  0  0.11316  0.122278  0  1.044808  0
H  H10  1  0.23213727  0.91195617  0.61294941  1  0.081682  0  0.118691  0.128267  0  0.960349  0
H  H11  1  0.21946578  0.90865617  0.71612513  1  0.101119  0  0.110005  0.121823  0  1.016577  0
H  H12  1  0.76269670  0.42146802  0.36703858  1  0.127926  0  0.122773  0.135698  0  0.953789  0
H  H13  1  0.78030693  0.42472299  0.47351284  1  0.112676  0  0.110328  0.121682  0  1.015586  0
H  H14  1  0.21994214  0.24552910  0.38958876  1  0.148427  0  0.113661  0.122833  0  1.043471  0
H  H15  1  0.21998956  0.44374039  0.52259156  1  0.147436  0  0.113795  0.122987  0  1.043399  0
H  H16  1  0.76270710  0.46626767  0.72107275  1  0.125118  0  0.122841  0.135875  0  0.953744  0
H  H17  1  0.78036431  0.35980286  0.61784713  1  0.099576  0  0.110277  0.121719  0  1.015688  0
H  H18  1  0.21993095  0.31072925  0.58778424  1  0.115582  0  0.113692  0.122828  0  1.043474  0
H  H19  1  0.76271297  0.11225186  0.41185560  1  0.090419  0  0.122721  0.135654  0  0.953863  0
H  H20  1  0.78032607  0.21547085  0.40859982  1  0.105115  0  0.110371  0.121838  0  1.015572  0
H  H21  1  0.76133202  0.44698198  0.08117270  1  0.096943  0  0.120782  0.131387  0  0.956887  0
H  H22  1  0.77093076  0.54966510  0.07685213  1  0.08802  0  0.109795  0.121278  0  1.016817  0
H  H23  1  0.20669934  0.64443576  0.25538255  1  0.103573  0  0.113114  0.123053  0  1.042971  0
H  H24  1  0.20664110  0.57796212  0.05574385  1  0.094293  0  0.113166  0.123128  0  1.04285  0
H  H25  1  0.76131065  0.75215590  0.03247085  1  0.088693  0  0.120778  0.131344  0  0.956935  0
H  H26  1  0.77088274  0.75649984  0.13948492  1  0.113359  0  0.109769  0.121176  0  1.016835  0
H  H27  1  0.20661211  0.77760113  0.18889992  1  0.094553  0  0.113135  0.123046  0  1.042918  0
H  H28  1  0.76135229  0.80086761  0.38636085  1  0.088926  0  0.120729  0.131214  0  0.956888  0
H  H29  1  0.77094260  0.69386069  0.28368155  1  0.095274  0  0.109766  0.121184  0  1.016791  0
C  C30  1  0.48687866  0.91471712  0.41147822  1  1.67304  0  0.275857  0.667663  0  4.109313  0
C  C31  1  0.50213364  0.00124635  0.58776636  1  1.658229  0  0.279057  0.671569  0  4.098261  0
C  C32  1  0.49034843  0.08842438  0.50261239  1  1.664101  0  0.283147  0.677823  0  4.087602  0
C  C33  1  0.50211399  0.24556196  0.08013394  1  1.635544  0  0.278955  0.67148  0  4.098395  0
C  C34  1  0.48689028  0.42185348  0.16990022  1  1.668266  0  0.275978  0.66766  0  4.109359  0
C  C35  1  0.49031911  0.33070794  0.25245931  1  1.660443  0  0.283062  0.677773  0  4.087206  0
C  C36  1  0.50213153  0.75318064  0.83209333  1  1.659234  0  0.278926  0.671191  0  4.098677  0
C  C37  1  0.48688364  0.66341368  0.91861740  1  1.667108  0  0.275914  0.667929  0  4.109338  0
C  C38  1  0.49030336  0.58085107  0.74490848  1  1.644451  0  0.28316  0.677983  0  4.087653  0
C  C39  1  0.35306276  0.87249239  0.88273250  1  0.055624  0  -0.075615  -0.073853  0  3.951227  0
C  C40  1  0.34287617  0.93264923  0.88420855  1  -0.051852  0  -0.082631  -0.153401  0  3.945314  0
C  C41  1  0.49322234  0.94012574  0.83451060  1  0.312983  0  0.096453  0.189419  0  4.02206  0
C  C42  1  0.65865499  0.88636455  0.78502420  1  0.016551  0  -0.087164  -0.221818  0  3.994825  0
C  C43  1  0.65926409  0.82643373  0.78356990  1  0.233315  0  0.081855  0.061922  0  3.953379  0
C  C44  1  0.50719925  0.81737969  0.83162618  1  -0.026937  0  0.000651  -0.072398  0  3.924958  0
C  C45  1  0.65868336  0.06530734  0.94695214  1  0.074359  0  -0.087205  -0.222086  0  3.99409  0
C  C46  1  0.65927499  0.12378580  0.00688444  1  0.240613  0  0.081956  0.062249  0  3.95284  0
C  C47  1  0.50717586  0.18088985  0.01593649  1  0.00061  0  0.000698  -0.072371  0  3.924886  0
C  C48  1  0.35303637  0.17688529  0.96082157  1  0.005393  0  -0.075858  -0.074183  0  3.951171  0
C  C49  1  0.34286121  0.11820490  0.90066594  1  -0.046138  0  -0.082499  -0.152874  0  3.945377  0
C  C50  1  0.49321556  0.06103491  0.89318899  1  0.296172  0  0.096273  0.188929  0  4.021908  0
C  C51  1  0.65869985  0.04829792  0.76801305  1  0.056372  0  -0.08716  -0.221943  0  3.994491  0
C  C52  1  0.65928096  0.04975931  0.70954093  1  0.254033  0  0.081919  0.062164  0  3.952995  0
C  C53  1  0.50717936  0.00170940  0.65243080  1  -0.013946  0  0.000568  -0.072641  0  3.92512  0
C  C54  1  0.35303880  0.95060035  0.65643084  1  0.035197  0  -0.07576  -0.073919  0  3.951097  0
C  C55  1  0.34287065  0.94911530  0.71510774  1  -0.044249  0  -0.082476  -0.153096  0  3.945003  0
C  C56  1  0.49322509  0.99881033  0.77228362  1  0.260965  0  0.09643  0.189211  0  4.021836  0
C  C57  1  0.64512171  0.38252943  0.37194236  1  -0.001548  0  -0.071312  -0.067416  0  3.931739  0
C  C58  1  0.65728052  0.38404163  0.43215654  1  -0.065062  0  -0.08136  -0.152751  0  3.939908  0
C  C59  1  0.50906293  0.33433455  0.43998856  1  0.35752  0  0.095937  0.189311  0  4.019785  0
C  C60  1  0.34309112  0.28466928  0.38642500  1  -0.045308  0  -0.087113  -0.222742  0  3.996084  0
C  C61  1  0.34089941  0.28307991  0.32642820  1  0.242943  0  0.081633  0.060542  0  3.956039  0
C  C62  1  0.49121785  0.33108736  0.31705098  1  -0.005298  0  0.001651  -0.07161  0  3.921391  0
C  C63  1  0.34313620  0.44690142  0.56489430  1  -0.014362  0  -0.087282  -0.222808  0  3.995692  0
C  C64  1  0.34092301  0.50689344  0.62330841  1  0.23847  0  0.081365  0.060274  0  3.956268  0
C  C65  1  0.49121826  0.51626365  0.68069212  1  -0.004097  0  0.001697  -0.071454  0  3.921447  0
C  C66  1  0.64514380  0.46137115  0.67723336  1  -0.00678  0  -0.071161  -0.067416  0  3.931943  0
C  C67  1  0.65732645  0.40115943  0.61852454  1  -0.036568  0  -0.081469  -0.152937  0  3.940104  0
C  C68  1  0.50909878  0.39333220  0.56098999  1  0.351604  0  0.096082  0.189274  0  4.019248  0
C  C69  1  0.34310357  0.26842982  0.54864897  1  -0.004568  0  -0.087294  -0.222676  0  3.995974  0
C  C70  1  0.34091156  0.21002045  0.55023579  1  0.254977  0  0.081593  0.06041  0  3.95614  0
C  C71  1  0.49123093  0.15263623  0.50223155  1  -0.011373  0  0.00167  -0.071582  0  3.921543  0
C  C72  1  0.64514301  0.15608924  0.45079552  1  0.03309  0  -0.071126  -0.067177  0  3.931683  0
C  C73  1  0.65730452  0.21479492  0.44928248  1  -0.055709  0  -0.081537  -0.153113  0  3.939924  0
C  C74  1  0.50908141  0.27233125  0.49898563  1  0.341513  0  0.09616  0.18932  0  4.019562  0
C  C75  1  0.63960071  0.49052437  0.11954873  1  0.006823  0  -0.073934  -0.072302  0  3.946572  0
C  C76  1  0.64783032  0.54890182  0.11748199  1  0.002666  0  -0.082336  -0.152419  0  3.946002  0
C  C77  1  0.49567293  0.60613526  0.16668982  1  0.317897  0  0.095498  0.188035  0  4.020668  0
C  C78  1  0.33146623  0.60221213  0.21655348  1  0.038457  0  -0.087064  -0.222053  0  3.988074  0
C  C79  1  0.33142301  0.54387393  0.21849814  1  0.195089  0  0.080922  0.061656  0  3.94058  0
C  C80  1  0.48467039  0.48673967  0.17072166  1  0.013082  0  0.001774  -0.069703  0  3.920209  0
C  C81  1  0.33141300  0.61678584  0.05234109  1  0.034165  0  -0.087326  -0.222319  0  3.988357  0
C  C82  1  0.33138324  0.61483200  0.99205548  1  0.205885  0  0.080977  0.061566  0  3.940729  0
C  C83  1  0.48466788  0.66260152  0.98268803  1  0.059778  0  0.001859  -0.069716  0  3.920113  0
C  C84  1  0.63957677  0.71378310  0.03764289  1  -0.037541  0  -0.07393  -0.072067  0  3.946329  0
C  C85  1  0.64778940  0.71586070  0.09809239  1  -0.062227  0  -0.082334  -0.152476  0  3.945835  0
C  C86  1  0.49564476  0.66665227  0.10612308  1  0.371786  0  0.095598  0.188217  0  4.020278  0
C  C87  1  0.33140321  0.78100117  0.23112689  1  0.056112  0  -0.087239  -0.222178  0  3.988391  0
C  C88  1  0.33136270  0.84128311  0.28945791  1  0.184905  0  0.081001  0.061656  0  3.940789  0
C  C89  1  0.48463851  0.85065208  0.34659761  1  -0.006275  0  0.001842  -0.069906  0  3.920162  0
C  C90  1  0.63958943  0.79569695  0.34281522  1  0.029302  0  -0.073915  -0.071957  0  3.946241  0
C  C91  1  0.64782110  0.73525209  0.28444462  1  -0.054371  0  -0.082231  -0.152317  0  3.945783  0
C  C92  1  0.49564245  0.72722199  0.22720948  1  0.37539  0  0.095434  0.18797  0  4.020406  0
N  N93  1  0.47814532  0.99998848  0.83332819  1  -1.184488  0  -0.250451  -0.144072  0  3.626327  0
N  N94  1  0.52586335  0.33333397  0.49998771  1  -1.175477  0  -0.247577  -0.143365  0  3.618305  0
N  N95  1  0.50772702  0.66667156  0.16667732  1  -1.178662  0  -0.249259  -0.144335  0  3.623403  0
N  N96  1  0.81936627  0.77089732  0.72698995  1  0.410071  0  0.062001  0.513766  0  4.190655  0
N  N97  1  0.81938859  0.12274224  0.06242123  1  0.410206  0  0.062046  0.513631  0  4.19059  0
N  N98  1  0.81939277  0.10634665  0.71059138  1  0.418698  0  0.062129  0.513627  0  4.19058  0
N  N99  1  0.17979127  0.22657691  0.27108818  1  0.394561  0  0.061934  0.51437  0  4.190357  0
N  N100  1  0.17978611  0.56223301  0.62215150  1  0.401108  0  0.06191  0.514329  0  4.190235  0
N  N101  1  0.17978629  0.21117939  0.60673621  1  0.392856  0  0.061956  0.51481  0  4.19013  0
N  N102  1  0.16398283  0.54481078  0.27442074  1  0.384826  0  0.062346  0.516638  0  4.191542  0
N  N103  1  0.16388855  0.55890699  0.93707833  1  0.37966  0  0.062275  0.516931  0  4.191359  0
N  N104  1  0.16390136  0.89626738  0.28851951  1  0.374568  0  0.062171  0.5167  0  4.191438  0
O  O105  1  0.73293863  0.07621457  0.52703929  1  -1.241886  0  -0.224906  -0.591879  0  2.441636  0
O  O106  1  0.72944430  0.95115966  0.42320395  1  -1.236673  0  -0.226658  -0.584885  0  2.404484  0
O  O107  1  0.73284632  0.97142888  0.54826047  1  -1.255397  0  -0.243971  -0.610347  0  2.346657  0
O  O108  1  0.25645128  0.04989068  0.47385344  1  -1.259127  0  -0.233521  -0.597215  0  2.390215  0
O  O109  1  0.25758214  0.02554046  0.57628916  1  -1.236925  0  -0.220397  -0.578776  0  2.432041  0
O  O110  1  0.25466406  0.92330127  0.45013006  1  -1.256945  0  -0.239795  -0.600932  0  2.346223  0
O  O111  1  0.25644724  0.35946601  0.24268404  1  -1.254585  0  -0.233448  -0.59722  0  2.390414  0
O  O112  1  0.25756604  0.25703647  0.11590141  1  -1.237868  0  -0.220272  -0.578515  0  2.432276  0
O  O113  1  0.25467576  0.38319956  0.13982752  1  -1.260047  0  -0.239894  -0.600976  0  2.346401  0
O  O114  1  0.73293039  0.30628225  0.21582347  1  -1.241918  0  -0.224992  -0.591846  0  2.441151  0
O  O115  1  0.72945899  0.41012415  0.19461320  1  -1.235839  0  -0.226626  -0.584741  0  2.404339  0
O  O116  1  0.73284109  0.28506990  0.08982234  1  -1.253424  0  -0.243966  -0.610404  0  2.346717  0
O  O117  1  0.25641807  0.59061819  0.78343875  1  -1.25644  0  -0.233597  -0.597392  0  2.390318  0
O  O118  1  0.25757921  0.71741034  0.80780149  1  -1.242345  0  -0.220443  -0.578849  0  2.432319  0
O  O119  1  0.25467305  0.69348280  0.91003328  1  -1.258068  0  -0.239781  -0.601205  0  2.346604  0
O  O120  1  0.73290727  0.61749055  0.75712521  1  -1.245967  0  -0.224896  -0.592042  0  2.441607  0
O  O121  1  0.72945188  0.63869663  0.88217719  1  -1.237266  0  -0.226547  -0.584921  0  2.404411  0
O  O122  1  0.73284519  0.74349162  0.86191359  1  -1.254855  0  -0.243867  -0.610063  0  2.346676  0
O  O123  1  0.75117124  0.71515486  0.71606579  1  -0.401174  0  -0.073376  -0.256341  0  2.04808  0
O  O124  1  0.00656275  0.78399074  0.69379885  1  -0.474412  0  -0.143638  -0.341338  0  1.889894  0
O  O125  1  0.75116476  0.16755935  0.11816612  1  -0.405312  0  -0.07354  -0.256506  0  2.047608  0
O  O126  1  0.00660701  0.07646646  0.04933301  1  -0.474639  0  -0.143581  -0.341217  0  1.890377  0
O  O127  1  0.75118995  0.11727616  0.66577732  1  -0.404881  0  -0.073406  -0.256319  0  2.047747  0
O  O128  1  0.00660745  0.13953357  0.75687468  1  -0.478992  0  -0.143728  -0.341308  0  1.890178  0
O  O129  1  0.24755055  0.21544770  0.21518263  1  -0.402993  0  -0.078702  -0.264665  0  2.044823  0
O  O130  1  0.99187370  0.19360685  0.28424624  1  -0.46571  0  -0.14093  -0.33773  0  1.892121  0
O  O131  1  0.24753545  0.61813588  0.66693217  1  -0.409468  0  -0.078625  -0.264681  0  2.04491  0
O  O132  1  0.99183617  0.54907648  0.57602748  1  -0.46206  0  -0.140932  -0.337655  0  1.891849  0
O  O133  1  0.24757042  0.16641264  0.61787241  1  -0.40361  0  -0.078711  -0.264891  0  2.045246  0
O  O134  1  0.99180852  0.25730186  0.63969518  1  -0.460103  0  -0.140978  -0.337926  0  1.891582  0
O  O135  1  0.22415421  0.49980151  0.28579598  1  -0.416286  0  -0.093252  -0.279924  0  1.967141  0
O  O136  1  0.97477648  0.59094687  0.30661918  1  -0.463227  0  -0.142938  -0.343529  0  1.898503  0
O  O137  1  0.22406133  0.54751899  0.88069147  1  -0.414537  0  -0.093136  -0.279801  0  1.967295  0
O  O138  1  0.97465405  0.52672034  0.95102967  1  -0.465736  0  -0.142956  -0.343838  0  1.898221  0
O  O139  1  0.22409294  0.95265320  0.33351966  1  -0.410454  0  -0.093118  -0.279758  0  1.967221  0
O  O140  1  0.97467024  0.88232407  0.24238236  1  -0.45863  0  -0.142865  -0.343634  0  1.898292  0
