# generated using pymatgen
data_Al2H17C24N3O10
_symmetry_space_group_name_H-M   'P 1'
_cell_length_a   6.66521177
_cell_length_b   16.94615823
_cell_length_c   19.72441618
_cell_angle_alpha   72.01501939
_cell_angle_beta   90.63969880
_cell_angle_gamma   90.31571177
_symmetry_Int_Tables_number   1
_chemical_formula_structural   Al2H17C24N3O10
_chemical_formula_sum   'Al4 H34 C48 N6 O20'
_cell_volume   2118.87129088
_cell_formula_units_Z   2
loop_
 _symmetry_equiv_pos_site_id
 _symmetry_equiv_pos_as_xyz
  1  'x, y, z'
loop_
 _atom_site_type_symbol
 _atom_site_label
 _atom_site_symmetry_multiplicity
 _atom_site_fract_x
 _atom_site_fract_y
 _atom_site_fract_z
 _atom_site_occupancy
 _atom_site_pbe_bader_charge
 _atom_site_pbe_bader_spin_density
 _atom_site_pbe_cm5_charge
 _atom_site_pbe_ddec_charge
 _atom_site_pbe_ddec_spin_density
 _atom_site_pbe_ddec_sum_bond_order
 _atom_site_pbe_magmom
Al  Al0  1  0.12292123  0.50025559  0.49969507  1  2.502065  0  0.394387  1.635914  0  2.591646  0
Al  Al1  1  0.62218761  0.50026683  0.50180658  1  2.502919  0  0.39416  1.635269  0  2.59027  0
Al  Al2  1  0.60879861  0.99848491  0.00132980  1  2.49976  0  0.392502  1.639381  0  2.585279  0
Al  Al3  1  0.10846259  0.00181406  0.00029242  1  2.504192  0  0.394685  1.642072  0  2.577456  0
H  H4  1  0.57317381  0.79646604  0.18409809  1  0.081154  0  0.110082  0.111315  0  0.980853  0
H  H5  1  0.06187623  0.19704181  0.80488728  1  0.080518  0  0.110675  0.111104  0  0.980494  0
H  H6  1  0.02500437  0.81844841  0.20767966  1  0.097132  0  0.10649  0.126012  0  1.030608  0
H  H7  1  0.52291014  0.19044434  0.80246578  1  0.117973  0  0.106058  0.122591  0  1.043429  0
H  H8  1  0.16510558  0.58636352  0.67885053  1  0.078748  0  0.105612  0.115042  0  1.000112  0
H  H9  1  0.08347319  0.41659466  0.32243190  1  0.080407  0  0.104747  0.113831  0  1.002705  0
H  H10  1  0.59371386  0.68839124  0.59227934  1  0.077577  0  0.103612  0.109169  0  1.010343  0
H  H11  1  0.65573350  0.31294903  0.40640478  1  0.09279  0  0.103754  0.109781  0  1.009584  0
H  H12  1  0.42850791  0.79431996  0.63619966  1  0.083788  0  0.105663  0.11034  0  0.985186  0
H  H13  1  0.81489858  0.20627552  0.36160873  1  0.061041  0  0.105276  0.110349  0  0.98545  0
H  H14  1  0.42412705  0.87799311  0.71907935  1  0.062555  0  0.106027  0.111205  0  0.984805  0
H  H15  1  0.81098187  0.12182974  0.27937721  1  0.068329  0  0.10586  0.110423  0  0.985048  0
H  H16  1  0.57459819  0.91512108  0.82076871  1  0.108076  0  0.109423  0.119365  0  0.995231  0
H  H17  1  0.65245151  0.08421249  0.17891420  1  0.113555  0  0.110213  0.120819  0  0.994601  0
H  H18  1  0.13881535  0.81401207  0.91034368  1  0.068987  0  0.109268  0.113628  0  1.013929  0
H  H19  1  0.08878890  0.18829213  0.09152717  1  0.087896  0  0.10965  0.114345  0  1.01371  0
H  H20  1  0.32128507  0.62544974  0.77921413  1  0.05439  0  0.102263  0.119819  0  0.993621  0
H  H21  1  0.92180065  0.37867400  0.22261981  1  0.051893  0  0.102285  0.120051  0  0.993899  0
H  H22  1  0.47665005  0.67808894  0.86514198  1  0.439878  0  0.309869  0.307727  0  0.929015  0
H  H23  1  0.37853322  0.75484954  0.89152699  1  0.447935  0  0.302759  0.300154  0  0.956242  0
H  H24  1  0.75981480  0.32652349  0.13752683  1  0.432666  0  0.309921  0.306282  0  0.929994  0
H  H25  1  0.85351307  0.24920245  0.11081551  1  0.434561  0  0.30291  0.295489  0  0.96126  0
H  H26  1  0.40768392  0.73904794  0.29232788  1  0.448065  0  0.296358  0.287571  0  0.973585  0
H  H27  1  0.50318489  0.65186593  0.35447948  1  0.517323  0  0.300964  0.309612  0  0.987245  0
H  H28  1  0.90531539  0.26321858  0.70247095  1  0.448128  0  0.298588  0.290591  0  0.979367  0
H  H29  1  0.01218345  0.34434078  0.63512636  1  0.52374  0  0.304664  0.315438  0  0.983436  0
H  H30  1  0.16193596  0.64075666  0.31567948  1  0.448303  0  0.299195  0.290379  0  0.975323  0
H  H31  1  0.07610801  0.69895638  0.23495921  1  0.414922  0  0.294936  0.277766  0  0.96974  0
H  H32  1  0.66381450  0.36158799  0.69155967  1  0.461269  0  0.295583  0.287069  0  0.981185  0
H  H33  1  0.56669342  0.30852987  0.77097969  1  0.42639  0  0.293925  0.276648  0  0.964443  0
H  H34  1  0.37282219  0.59666749  0.51415449  1  0.640488  0  0.351643  0.426093  0  0.86045  0
H  H35  1  0.86739840  0.40540872  0.48521630  1  0.609682  0  0.350731  0.424213  0  0.863527  0
H  H36  1  0.35472250  0.89333439  0.04363452  1  0.62852  0  0.350534  0.425205  0  0.861404  0
H  H37  1  0.85201468  0.10518508  0.95383907  1  0.611486  0  0.349172  0.423587  0  0.86663  0
C  C38  1  0.36630360  0.41760788  0.42020921  1  1.52997  0  0.269871  0.653807  0  4.075123  0
C  C39  1  0.88253682  0.58372026  0.58043146  1  1.559903  0  0.270689  0.653943  0  4.075752  0
C  C40  1  0.37885027  0.38943639  0.61361779  1  1.503273  0  0.24356  0.586412  0  4.131256  0
C  C41  1  0.86396672  0.61114131  0.38735261  1  1.522171  0  0.249977  0.594035  0  4.122649  0
C  C42  1  0.71616533  0.78033451  0.21288818  1  -0.03051  0  -0.069909  -0.076459  0  3.95293  0
C  C43  1  0.20997715  0.21797739  0.78276367  1  -0.09927  0  -0.069503  -0.080201  0  3.945824  0
C  C44  1  0.87808121  0.82561317  0.18205849  1  -0.047769  0  -0.10698  -0.269136  0  3.928948  0
C  C45  1  0.36954607  0.17728357  0.82058328  1  -0.029897  0  -0.103883  -0.2596  0  3.922853  0
C  C46  1  0.70465819  0.71440006  0.28009033  1  0.452095  0  0.086351  0.204893  0  4.070924  0
C  C47  1  0.20720839  0.28456036  0.71548138  1  0.465046  0  0.094882  0.218528  0  4.072926  0
C  C48  1  0.87282375  0.67225044  0.31598837  1  0.399324  0  0.066172  0.002601  0  3.972589  0
C  C49  1  0.37895783  0.32818367  0.68454143  1  0.391193  0  0.057765  -0.013406  0  3.969324  0
C  C50  1  0.03966808  0.62733360  0.67910352  1  -0.022017  0  -0.088754  -0.15786  0  3.934354  0
C  C51  1  0.20806478  0.37556273  0.32135602  1  -0.027068  0  -0.08902  -0.157411  0  3.934933  0
C  C52  1  0.88029877  0.63321888  0.63098376  1  -0.03077  0  -0.023492  -0.048649  0  4.044108  0
C  C53  1  0.36920026  0.36909854  0.36890885  1  0.019884  0  -0.02388  -0.048904  0  4.044469  0
C  C54  1  0.71656369  0.68503941  0.62995542  1  -0.030219  0  -0.092069  -0.161812  0  3.958411  0
C  C55  1  0.53152403  0.31692788  0.36911097  1  -0.077144  0  -0.091083  -0.161882  0  3.956925  0
C  C56  1  0.71215577  0.73361595  0.67596588  1  0.004455  0  -0.011198  0.075325  0  4.061589  0
C  C57  1  0.53189947  0.26826704  0.32305889  1  0.017688  0  -0.0117  0.074711  0  4.057462  0
C  C58  1  0.87280655  0.72702895  0.72602669  1  -0.045248  0  -0.007615  -0.022335  0  3.940663  0
C  C59  1  0.36897941  0.27526804  0.27379266  1  0.000872  0  -0.007081  -0.02137  0  3.936788  0
C  C60  1  0.03756211  0.67230100  0.72830971  1  -0.047754  0  -0.009863  0.096325  0  4.087787  0
C  C61  1  0.20618156  0.33066150  0.27214787  1  -0.030487  0  -0.011146  0.095488  0  4.089543  0
C  C62  1  0.55099201  0.78987757  0.67438456  1  -0.021559  0  -0.087973  -0.125935  0  4.010888  0
C  C63  1  0.69070038  0.21116751  0.32402150  1  -0.076868  0  -0.088062  -0.126977  0  4.012023  0
C  C64  1  0.54859743  0.83605591  0.72008102  1  -0.091773  0  -0.091296  -0.134539  0  4.017178  0
C  C65  1  0.68841103  0.16453104  0.27865146  1  -0.044305  0  -0.090891  -0.133577  0  4.017058  0
C  C66  1  0.70618934  0.82970065  0.77162829  1  0.005514  0  -0.01135  0.067154  0  4.055083  0
C  C67  1  0.52828485  0.17124551  0.22795045  1  0.003361  0  -0.01135  0.066318  0  4.056459  0
C  C68  1  0.87072856  0.77478620  0.77387223  1  0.016734  0  -0.001174  0.004066  0  3.943317  0
C  C69  1  0.36626796  0.22712867  0.22622201  1  -0.024805  0  -0.001098  0.004633  0  3.940577  0
C  C70  1  0.03066688  0.76834663  0.82445502  1  -0.044207  0  -0.010317  -0.01489  0  3.990268  0
C  C71  1  0.20384288  0.23407798  0.17648437  1  -0.018417  0  -0.010509  -0.014675  0  3.988044  0
C  C72  1  0.19611247  0.71247059  0.82572868  1  0.379202  0  0.096021  0.258243  0  4.11521  0
C  C73  1  0.04083689  0.29090545  0.17571778  1  0.407749  0  0.096644  0.258797  0  4.113896  0
C  C74  1  0.19513121  0.66647861  0.77893014  1  0.030211  0  -0.116091  -0.285161  0  3.986497  0
C  C75  1  0.04616739  0.33705737  0.22235853  1  -0.017985  0  -0.115824  -0.285438  0  3.987799  0
C  C76  1  0.70083207  0.87445666  0.82069918  1  -0.07871  0  -0.083924  -0.154677  0  3.951717  0
C  C77  1  0.52843003  0.12577965  0.17936733  1  -0.077441  0  -0.083999  -0.154424  0  3.9473  0
C  C78  1  0.85732640  0.86783937  0.86978495  1  0.012142  0  -0.019492  -0.037442  0  4.02108  0
C  C79  1  0.36936046  0.13285554  0.13116636  1  -0.016131  0  -0.019784  -0.037925  0  4.020394  0
C  C80  1  0.02151258  0.81624398  0.87088682  1  -0.021237  0  -0.084453  -0.137588  0  3.943839  0
C  C81  1  0.20798475  0.18565053  0.13040316  1  -0.008528  0  -0.084155  -0.138533  0  3.946229  0
C  C82  1  0.35122672  0.11074054  0.88877074  1  1.544658  0  0.256727  0.680539  0  4.111303  0
C  C83  1  0.86866466  0.89064433  0.11282959  1  1.509466  0  0.253478  0.677068  0  4.116881  0
C  C84  1  0.37146565  0.08453463  0.07938411  1  1.567308  0  0.263017  0.636281  0  4.108315  0
C  C85  1  0.85007913  0.91552757  0.92200267  1  1.57138  0  0.263338  0.636431  0  4.110876  0
N  N86  1  0.34908324  0.70469139  0.87527350  1  -1.220014  0  -0.596158  -0.617338  0  3.30553  0
N  N87  1  0.88572063  0.29925125  0.12690319  1  -1.20497  0  -0.59637  -0.610673  0  3.310552  0
N  N88  1  0.51154549  0.69306269  0.30435158  1  -1.271978  0  -0.601134  -0.616864  0  3.353289  0
N  N89  1  0.01950950  0.30408447  0.68559839  1  -1.273828  0  -0.590834  -0.603325  0  3.368194  0
N  N90  1  0.06724045  0.68709326  0.28870212  1  -1.177971  0  -0.601304  -0.588534  0  3.391843  0
N  N91  1  0.56923727  0.31483129  0.71790184  1  -1.191847  0  -0.60512  -0.591165  0  3.36586  0
O  O92  1  0.55003653  0.42142028  0.59065830  1  -1.264463  0  -0.247571  -0.596352  0  2.359073  0
O  O93  1  0.03291756  0.58995880  0.41940329  1  -1.268012  0  -0.246717  -0.596624  0  2.362899  0
O  O94  1  0.19690665  0.44465046  0.43268977  1  -1.263624  0  -0.237682  -0.598941  0  2.347794  0
O  O95  1  0.71447074  0.57191566  0.55353390  1  -1.266127  0  -0.237069  -0.602181  0  2.361436  0
O  O96  1  0.21356527  0.40721771  0.57772378  1  -1.267524  0  -0.244398  -0.605366  0  2.395922  0
O  O97  1  0.69272496  0.58312381  0.41353295  1  -1.25735  0  -0.23997  -0.593162  0  2.394428  0
O  O98  1  0.05079778  0.55656530  0.56689361  1  -1.26539  0  -0.238253  -0.59824  0  2.331195  0
O  O99  1  0.53253967  0.42877383  0.44873703  1  -1.266036  0  -0.237079  -0.601247  0  2.342564  0
O  O100  1  0.37229196  0.55215320  0.49286815  1  -1.445964  0  -0.448902  -0.98251  0  2.187238  0
O  O101  1  0.87210146  0.44848605  0.50815310  1  -1.416325  0  -0.448084  -0.979897  0  2.178471  0
O  O102  1  0.20577070  0.07799497  0.04861763  1  -1.259561  0  -0.239046  -0.596188  0  2.345356  0
O  O103  1  0.67922053  0.94206207  0.93326552  1  -1.252254  0  -0.239013  -0.58955  0  2.339073  0
O  O104  1  0.51698881  0.08898842  0.92278116  1  -1.266072  0  -0.24297  -0.60762  0  2.322163  0
O  O105  1  0.03634411  0.92605351  0.09050990  1  -1.260935  0  -0.244008  -0.602473  0  2.303415  0
O  O106  1  0.53943489  0.05468225  0.06942118  1  -1.2506  0  -0.237265  -0.588521  0  2.345301  0
O  O107  1  0.01538878  0.92496787  0.95169207  1  -1.260347  0  -0.240786  -0.598692  0  2.351921  0
O  O108  1  0.70147848  0.90704876  0.07891488  1  -1.274209  0  -0.24333  -0.610716  0  2.325453  0
O  O109  1  0.17916187  0.08017036  0.91033794  1  -1.265502  0  -0.242584  -0.601989  0  2.309039  0
O  O110  1  0.35680799  0.94879892  0.01002230  1  -1.434112  0  -0.44885  -0.986794  0  2.197115  0
O  O111  1  0.85759849  0.05192897  0.99073245  1  -1.417569  0  -0.44952  -0.985482  0  2.192079  0
