# generated using pymatgen
data_AlH9C14SNO8
_symmetry_space_group_name_H-M   'P 1'
_cell_length_a   6.67965706
_cell_length_b   10.93336658
_cell_length_c   17.60930235
_cell_angle_alpha   93.27065327
_cell_angle_beta   81.57883162
_cell_angle_gamma   75.83789842
_symmetry_Int_Tables_number   1
_chemical_formula_structural   AlH9C14SNO8
_chemical_formula_sum   'Al2 H18 C28 S2 N2 O16'
_cell_volume   1227.70014078
_cell_formula_units_Z   2
loop_
 _symmetry_equiv_pos_site_id
 _symmetry_equiv_pos_as_xyz
  1  'x, y, z'
loop_
 _atom_site_type_symbol
 _atom_site_label
 _atom_site_symmetry_multiplicity
 _atom_site_fract_x
 _atom_site_fract_y
 _atom_site_fract_z
 _atom_site_occupancy
 _atom_site_pbe_bader_charge
 _atom_site_pbe_bader_spin_density
 _atom_site_pbe_cm5_charge
 _atom_site_pbe_ddec_charge
 _atom_site_pbe_ddec_spin_density
 _atom_site_pbe_ddec_sum_bond_order
 _atom_site_pbe_magmom
Al  Al0  1  0.49810685  0.49755104  0.49858659  1  2.505268  0  0.402507  1.651279  0  2.556591  0
Al  Al1  1  0.99720018  0.49778512  0.49769937  1  2.503955  0  0.399827  1.645794  0  2.567685  0
H  H2  1  0.24884822  0.41343186  0.57849754  1  0.607403  0  0.350334  0.426253  0  0.862084  0
H  H3  1  0.73864684  0.60100747  0.42603896  1  0.649896  0  0.334374  0.429591  0  0.889844  0
H  H4  1  0.68271079  0.47852898  0.27894184  1  0.099718  0  0.109593  0.126813  0  1.003802  0
H  H5  1  0.77917936  0.47647270  0.13628731  1  0.105819  0  0.103538  0.111459  0  1.017212  0
H  H6  1  0.03232388  0.55586354  0.25725509  1  0.123527  0  0.107878  0.123368  0  1.032086  0
H  H7  1  0.94218605  0.54763113  0.73562352  1  0.089317  0  0.107619  0.123096  0  1.004043  0
H  H8  1  0.37651795  0.43046142  0.72444496  1  0.076055  0  0.101076  0.10667  0  1.017504  0
H  H9  1  0.31457411  0.43044010  0.86792536  1  0.113434  0  0.101603  0.10561  0  1.01798  0
H  H10  1  0.18440561  0.20992525  0.37370720  1  0.145972  0  0.122232  0.138101  0  1.009508  0
H  H11  1  0.45790266  0.76039906  0.41660941  1  0.14743  0  0.119395  0.125345  0  1.056624  0
H  H12  1  0.77243979  0.88358881  0.56686576  1  0.105059  0  0.118022  0.125805  0  0.971734  0
H  H13  1  0.63848490  0.11321640  0.54959529  1  0.12838  0  0.114523  0.118985  0  0.976549  0
H  H14  1  0.13957521  0.60921791  0.05319486  1  0.437835  0  0.29753  0.287889  0  0.964751  0
H  H15  1  0.95457624  0.64893137  0.13398407  1  0.455747  0  0.298383  0.296517  0  0.977677  0
H  H16  1  0.86463703  0.57223872  0.94717368  1  0.463916  0  0.301858  0.296769  0  0.969225  0
H  H17  1  0.01687327  0.59962202  0.86514576  1  0.457022  0  0.312162  0.307402  0  0.939996  0
H  H18  1  0.65689564  0.23138614  0.37177965  1  0.644488  0  0.322901  0.378733  0  0.918932  0
H  H19  1  0.62690241  0.70653621  0.22837050  1  0.607724  0  0.322332  0.363336  0  0.919358  0
C  C20  1  0.84829608  0.26492228  0.47783897  1  1.584349  0  0.26875  0.633859  0  4.098926  0
C  C21  1  0.69927214  0.49381609  0.63717671  1  1.569148  0  0.268725  0.648971  0  4.072962  0
C  C22  1  0.14489747  0.72792413  0.51240481  1  1.582465  0  0.267761  0.637577  0  4.098299  0
C  C23  1  0.30133781  0.50241680  0.35952222  1  1.559272  0  0.269448  0.644716  0  4.0674  0
C  C24  1  0.35035244  0.51734866  0.27583345  1  -0.013611  0  -0.013124  -0.01185  0  3.998194  0
C  C25  1  0.56234182  0.49999779  0.24273472  1  -0.030707  0  -0.105502  -0.155975  0  4.038188  0
C  C26  1  0.61531578  0.49913607  0.16359101  1  -0.088879  0  -0.089144  -0.121368  0  3.99544  0
C  C27  1  0.45903228  0.52338688  0.11637625  1  0.062707  0  -0.010874  0.030829  0  4.083443  0
C  C28  1  0.24395283  0.55342805  0.15108516  1  0.437033  0  0.11085  0.272226  0  4.021776  0
C  C29  1  0.19426037  0.54324106  0.23042287  1  0.052504  0  -0.088033  -0.189479  0  3.899309  0
C  C30  1  0.51138121  0.51595219  0.03542202  1  0.115151  0  -0.041792  -0.095521  0  4.139341  0
C  C31  1  0.54422120  0.50418729  0.96473789  1  -0.58099  0  -0.047722  -0.108388  0  4.146222  0
C  C32  1  0.58755993  0.49455369  0.88349823  1  0.110338  0  -0.011675  0.031061  0  4.089924  0
C  C33  1  0.77110964  0.52544489  0.84616722  1  0.391676  0  0.107171  0.271546  0  4.072088  0
C  C34  1  0.80477336  0.52277141  0.76550431  1  0.053687  0  -0.098361  -0.219956  0  3.94116  0
C  C35  1  0.66189992  0.49120277  0.72230773  1  -0.068243  0  -0.021577  -0.035517  0  4.037075  0
C  C36  1  0.48422937  0.45737196  0.75892864  1  -0.021317  0  -0.106965  -0.13949  0  4.051564  0
C  C37  1  0.44986286  0.45795915  0.83852300  1  -0.03502  0  -0.090824  -0.119755  0  4.008494  0
C  C38  1  0.92022489  0.12428867  0.47809294  1  -0.017377  0  -0.000449  -0.067899  0  3.92837  0
C  C39  1  0.12275740  0.05645113  0.43894433  1  -0.019124  0  0.014381  0.082384  0  3.925005  0
C  C40  1  0.79567531  0.06123832  0.52197275  1  -0.021575  0  -0.071455  -0.085384  0  3.968692  0
C  C41  1  0.24382224  0.11198965  0.38488112  1  0.061856  0  -0.06402  -0.101034  0  3.896592  0
C  C42  1  0.43480153  0.04477236  0.34386384  1  -0.184011  0  -0.010284  -0.096434  0  3.949581  0
C  C43  1  0.07463560  0.86603763  0.50061109  1  0.043042  0  0.003325  -0.062934  0  3.894738  0
C  C44  1  0.87223598  0.93259426  0.53268049  1  -0.043645  0  -0.069417  -0.07872  0  3.958116  0
C  C45  1  0.20135748  0.92636437  0.45091691  1  -0.033435  0  0.011115  0.076257  0  3.940259  0
C  C46  1  0.39779111  0.85922192  0.40829515  1  0.078127  0  -0.072083  -0.116625  0  3.928986  0
C  C47  1  0.51309887  0.91518966  0.35609325  1  -0.183751  0  -0.012758  -0.100756  0  3.974646  0
S  S48  1  0.56024462  0.13356032  0.27821007  1  3.123904  0  0.543709  1.153669  0  6.018091  0
S  S49  1  0.75257837  0.81050600  0.30821347  1  3.063825  0  0.555356  1.154798  0  5.952623  0
N  N50  1  0.08853128  0.58666850  0.10657202  1  -1.229654  0  -0.590345  -0.604393  0  3.316406  0
N  N51  1  0.91181142  0.55432357  0.88926252  1  -1.271928  0  -0.586072  -0.609569  0  3.361927  0
O  O52  1  0.65839318  0.31424322  0.47027284  1  -1.254135  0  -0.23486  -0.586811  0  2.31208  0
O  O53  1  0.87661072  0.50571448  0.60540443  1  -1.26378  0  -0.235871  -0.589434  0  2.336722  0
O  O54  1  0.00080288  0.67043455  0.51268801  1  -1.252239  0  -0.229207  -0.584963  0  2.377219  0
O  O55  1  0.45178403  0.50342493  0.39673599  1  -1.281301  0  -0.242446  -0.61687  0  2.415922  0
O  O56  1  0.33430749  0.67869465  0.51916137  1  -1.25127  0  -0.237223  -0.579035  0  2.291041  0
O  O57  1  0.12275421  0.49021190  0.38969739  1  -1.253929  0  -0.231251  -0.568214  0  2.296141  0
O  O58  1  0.98478566  0.32418763  0.48806591  1  -1.245191  0  -0.223153  -0.573447  0  2.384102  0
O  O59  1  0.54983043  0.48287874  0.60128962  1  -1.274985  0  -0.241499  -0.612661  0  2.339605  0
O  O60  1  0.25993052  0.44095135  0.52702087  1  -1.414755  0  -0.449757  -0.994204  0  2.199545  0
O  O61  1  0.73623842  0.55089202  0.47027326  1  -1.45407  0  -0.457013  -1.011358  0  2.200283  0
O  O62  1  0.72686948  0.17023530  0.32586840  1  -1.214884  0  -0.355688  -0.525051  0  2.220319  0
O  O63  1  0.67855764  0.05347780  0.21150982  1  -1.28703  0  -0.304709  -0.497625  0  2.142614  0
O  O64  1  0.40335957  0.24676371  0.27084258  1  -1.300984  0  -0.299183  -0.52467  0  2.211764  0
O  O65  1  0.70128880  0.77478509  0.22416773  1  -1.169542  0  -0.348226  -0.512768  0  2.196482  0
O  O66  1  0.91809619  0.87239267  0.29690530  1  -1.268972  0  -0.285026  -0.479538  0  2.159207  0
O  O67  1  0.78001958  0.69563853  0.34663582  1  -1.326719  0  -0.290685  -0.549009  0  2.326354  0
