# generated using pymatgen
data_AlH27C24(N2O)6
_symmetry_space_group_name_H-M   'P 1'
_cell_length_a   3.74442956
_cell_length_b   28.92742194
_cell_length_c   28.92757620
_cell_angle_alpha   119.99986961
_cell_angle_beta   90.00025548
_cell_angle_gamma   89.99944237
_symmetry_Int_Tables_number   1
_chemical_formula_structural   AlH27C24(N2O)6
_chemical_formula_sum   'Al2 H54 C48 N24 O12'
_cell_volume   2713.55509791
_cell_formula_units_Z   2
loop_
 _symmetry_equiv_pos_site_id
 _symmetry_equiv_pos_as_xyz
  1  'x, y, z'
loop_
 _atom_site_type_symbol
 _atom_site_label
 _atom_site_symmetry_multiplicity
 _atom_site_fract_x
 _atom_site_fract_y
 _atom_site_fract_z
 _atom_site_occupancy
 _atom_site_pbe_bader_charge
 _atom_site_pbe_bader_spin_density
 _atom_site_pbe_cm5_charge
 _atom_site_pbe_ddec_charge
 _atom_site_pbe_ddec_spin_density
 _atom_site_pbe_ddec_sum_bond_order
 _atom_site_pbe_magmom
Al  Al0  1  0.99320390  0.50000098  0.49999986  1  2.493798  0  0.411559  1.562539  0  2.575215  0
Al  Al1  1  0.99322885  0.16666702  0.83333303  1  2.49423  0  0.411577  1.562809  0  2.575137  0
H  H2  1  0.49676208  0.38117007  0.72284706  1  0.067816  0  0.09525  0.077232  0  1.106405  0
H  H3  1  0.49622963  0.28547076  0.61046597  1  0.069317  0  0.095244  0.077413  0  1.106613  0
H  H4  1  0.49679753  0.84167735  0.61882641  1  0.063925  0  0.095271  0.077209  0  1.106266  0
H  H5  1  0.49619335  0.82499657  0.71452883  1  0.063745  0  0.095215  0.077331  0  1.10651  0
H  H6  1  0.49673579  0.27715753  0.15832234  1  0.049252  0  0.095197  0.077121  0  1.106493  0
H  H7  1  0.49622997  0.38953955  0.17500532  1  0.048444  0  0.095201  0.077372  0  1.106575  0
H  H8  1  0.63729315  0.30302265  0.86792591  1  0.424224  0  0.285429  0.283895  0  0.997433  0
H  H9  1  0.33231062  0.34686899  0.87247399  1  0.398808  0  0.283389  0.272075  0  0.978713  0
H  H10  1  0.34680893  0.40563402  0.79747254  1  0.416065  0  0.289903  0.281339  0  0.972264  0
H  H11  1  0.57355741  0.39699393  0.84236413  1  0.413137  0  0.285232  0.272322  0  0.995562  0
H  H12  1  0.35868503  0.14514574  0.70203564  1  0.433568  0  0.285597  0.284141  0  0.998359  0
H  H13  1  0.67013373  0.14457194  0.66081815  1  0.413854  0  0.283851  0.272905  0  0.976886  0
H  H14  1  0.66986834  0.22672339  0.61168506  1  0.423641  0  0.292386  0.28242  0  0.970518  0
H  H15  1  0.43498249  0.17976272  0.61589122  1  0.443581  0  0.285219  0.269112  0  0.999481  0
H  H16  1  0.66989448  0.43993551  0.72163870  1  0.425394  0  0.292424  0.282378  0  0.970609  0
H  H17  1  0.43486096  0.48688346  0.71742829  1  0.444291  0  0.285107  0.268934  0  0.999421  0
H  H18  1  0.35865989  0.52150884  0.63129217  1  0.43385  0  0.285637  0.284095  0  0.99833  0
H  H19  1  0.67015788  0.52207609  0.67250472  1  0.413267  0  0.283839  0.272912  0  0.976883  0
H  H20  1  0.34680206  0.26100698  0.53582531  1  0.415979  0  0.28992  0.281355  0  0.972369  0
H  H21  1  0.57356191  0.26966165  0.49094580  1  0.41277  0  0.285185  0.272148  0  0.995831  0
H  H22  1  0.63730087  0.36364060  0.46539976  1  0.423985  0  0.285384  0.283815  0  0.997546  0
H  H23  1  0.33234536  0.31979011  0.46084313  1  0.398135  0  0.283362  0.272  0  0.978947  0
H  H24  1  0.63728298  0.06490452  0.69697698  1  0.452633  0  0.285415  0.283857  0  0.997523  0
H  H25  1  0.33230801  0.02560547  0.65313132  1  0.393708  0  0.283427  0.272124  0  0.97858  0
H  H26  1  0.34680190  0.89184073  0.59436705  1  0.414322  0  0.289874  0.281304  0  0.972477  0
H  H27  1  0.57355563  0.94537196  0.60300638  1  0.415962  0  0.2852  0.272326  0  0.995482  0
H  H28  1  0.35868783  0.05688963  0.85485382  1  0.445833  0  0.285599  0.284124  0  0.998516  0
H  H29  1  0.67013859  0.01624604  0.85542929  1  0.409871  0  0.283863  0.272921  0  0.976819  0
H  H30  1  0.66985809  0.88496081  0.77327550  1  0.425993  0  0.292412  0.282442  0  0.970514  0
H  H31  1  0.43498276  0.93612893  0.82023683  1  0.410291  0  0.285192  0.269042  0  0.999539  0
H  H32  1  0.66988788  0.78170344  0.56006151  1  0.425847  0  0.292443  0.282356  0  0.970703  0
H  H33  1  0.43485452  0.73054523  0.51311617  1  0.409886  0  0.285128  0.268908  0  0.99943  0
H  H34  1  0.35866510  0.60978462  0.47849166  1  0.446046  0  0.285656  0.284099  0  0.998546  0
H  H35  1  0.67015301  0.65042965  0.47792123  1  0.411455  0  0.283801  0.272874  0  0.976897  0
H  H36  1  0.34679759  0.77481888  0.73899164  1  0.414179  0  0.289918  0.281331  0  0.972481  0
H  H37  1  0.57357355  0.72128365  0.73033664  1  0.41506  0  0.285185  0.272228  0  0.995711  0
H  H38  1  0.63730036  0.60176007  0.63635842  1  0.452481  0  0.285418  0.283858  0  0.997598  0
H  H39  1  0.33234263  0.64105420  0.68020873  1  0.393762  0  0.283384  0.272025  0  0.978897  0
H  H40  1  0.63728156  0.13207584  0.93509704  1  0.419187  0  0.285427  0.283906  0  0.997427  0
H  H41  1  0.33230395  0.12753101  0.97439487  1  0.392062  0  0.283418  0.272146  0  0.978633  0
H  H42  1  0.34679494  0.20253083  0.10815935  1  0.417458  0  0.289911  0.28133  0  0.972401  0
H  H43  1  0.57355923  0.15764062  0.05462980  1  0.420551  0  0.285219  0.272332  0  0.995669  0
H  H44  1  0.35869930  0.29796748  0.94310775  1  0.411083  0  0.285598  0.284107  0  0.998455  0
H  H45  1  0.67014510  0.33918631  0.98375183  1  0.410986  0  0.283861  0.272854  0  0.976823  0
H  H46  1  0.66986569  0.38831925  0.11503848  1  0.426489  0  0.292417  0.282461  0  0.970485  0
H  H47  1  0.43498549  0.38411232  0.06387025  1  0.426368  0  0.285214  0.269173  0  0.999264  0
H  H48  1  0.66988720  0.27835911  0.21829384  1  0.425921  0  0.292444  0.282342  0  0.970716  0
H  H49  1  0.43486138  0.28257186  0.26945242  1  0.427152  0  0.284971  0.268738  0  0.999372  0
H  H50  1  0.35866164  0.36870819  0.39021280  1  0.410828  0  0.285712  0.284244  0  0.998335  0
H  H51  1  0.67014918  0.32749187  0.34956924  1  0.411588  0  0.283799  0.272861  0  0.976985  0
H  H52  1  0.34680078  0.46417646  0.22518112  1  0.417723  0  0.289933  0.281364  0  0.972464  0
H  H53  1  0.57357420  0.50905482  0.27871668  1  0.420103  0  0.285191  0.272171  0  0.995901  0
H  H54  1  0.63729644  0.53459848  0.39823969  1  0.419731  0  0.285437  0.283824  0  0.997596  0
H  H55  1  0.33234135  0.53915581  0.35894637  1  0.392984  0  0.283398  0.272003  0  0.978902  0
C  C56  1  0.49391832  0.46154325  0.41571362  1  1.511256  0  0.266946  0.656625  0  4.047255  0
C  C57  1  0.49392312  0.45416970  0.53845398  1  1.507036  0  0.267006  0.656724  0  4.047052  0
C  C58  1  0.49391861  0.58428510  0.54582890  1  1.442945  0  0.267042  0.656726  0  4.047139  0
C  C59  1  0.49390892  0.21248378  0.79486852  1  1.506404  0  0.266818  0.656322  0  4.047448  0
C  C60  1  0.49391878  0.08238510  0.78751630  1  1.442577  0  0.266925  0.656576  0  4.047175  0
C  C61  1  0.49390839  0.20513374  0.91761442  1  1.511605  0  0.266864  0.656316  0  4.047265  0
C  C62  1  0.49693856  0.24392885  0.76774006  1  -0.016371  0  -0.032081  -0.234233  0  4.002263  0
C  C63  1  0.46442901  0.21788685  0.71165779  1  0.426987  0  0.069647  0.15395  0  4.032685  0
C  C64  1  0.47826410  0.24775196  0.68544139  1  0.426467  0  0.086316  0.159229  0  4.006003  0
C  C65  1  0.49918161  0.30441125  0.71504116  1  0.092428  0  -0.01581  -0.052001  0  3.97188  0
C  C66  1  0.52304101  0.32981577  0.77180241  1  0.255793  0  0.083329  0.152373  0  4.014701  0
C  C67  1  0.53388258  0.30001996  0.79791767  1  0.404482  0  0.068759  0.155663  0  4.035666  0
C  C68  1  0.49702215  0.33937163  0.69265664  1  -0.080993  0  -0.097048  -0.098528  0  3.967005  0
C  C69  1  0.49685354  0.32727190  0.64065231  1  0.019443  0  -0.097212  -0.099179  0  3.967656  0
C  C70  1  0.52304289  0.33683120  0.56150722  1  0.256746  0  0.083476  0.152461  0  4.01452  0
C  C71  1  0.49915938  0.36223331  0.61826883  1  0.091668  0  -0.015803  -0.05206  0  3.971525  0
C  C72  1  0.47829216  0.41889290  0.64787524  1  0.426199  0  0.086519  0.159322  0  4.005529  0
C  C73  1  0.46443011  0.44876182  0.62166265  1  0.426082  0  0.069667  0.15423  0  4.03251  0
C  C74  1  0.49693713  0.42272206  0.56557947  1  -0.01608  0  -0.032173  -0.234669  0  4.002389  0
C  C75  1  0.53390557  0.36663103  0.53539759  1  0.404533  0  0.068999  0.156104  0  4.035504  0
C  C76  1  0.49695689  0.02381272  0.75607333  1  -0.021304  0  -0.032135  -0.234467  0  4.002223  0
C  C77  1  0.46443989  0.99377167  0.78211369  1  0.404731  0  0.069707  0.154121  0  4.032709  0
C  C78  1  0.47824326  0.93769024  0.75224717  1  0.294913  0  0.086203  0.159033  0  4.00606  0
C  C79  1  0.49917312  0.91063129  0.69558747  1  0.121641  0  -0.015816  -0.05188  0  3.971802  0
C  C80  1  0.52302037  0.94198961  0.67018570  1  0.242539  0  0.083401  0.152264  0  4.014741  0
C  C81  1  0.53387764  0.99789890  0.69998029  1  0.561562  0  0.068794  0.155873  0  4.035448  0
C  C82  1  0.49700607  0.85328347  0.66063010  1  -0.080138  0  -0.097094  -0.098609  0  3.967711  0
C  C83  1  0.49683141  0.81338414  0.67272522  1  0.017222  0  -0.097101  -0.099029  0  3.968149  0
C  C84  1  0.52303333  0.72467625  0.66316789  1  0.241795  0  0.083498  0.15242  0  4.014622  0
C  C85  1  0.49916170  0.75603708  0.63776502  1  0.121451  0  -0.015807  -0.051989  0  3.971214  0
C  C86  1  0.47828813  0.72898288  0.58110405  1  0.270751  0  0.086381  0.159241  0  4.005536  0
C  C87  1  0.46443709  0.67290098  0.55123664  1  0.404358  0  0.069659  0.154151  0  4.032345  0
C  C88  1  0.49694017  0.64285721  0.57727560  1  -0.02118  0  -0.032165  -0.234617  0  4.002202  0
C  C89  1  0.53389900  0.66876801  0.63336878  1  0.562007  0  0.069057  0.156202  0  4.035415  0
C  C90  1  0.49696619  0.23226460  0.97618782  1  -0.088015  0  -0.03213  -0.234315  0  4.002221  0
C  C91  1  0.46444510  0.28834578  0.00622920  1  0.360292  0  0.069509  0.153783  0  4.032912  0
C  C92  1  0.47825488  0.31456218  0.06231063  1  0.45985  0  0.086289  0.159182  0  4.006084  0
C  C93  1  0.49917274  0.28496047  0.08936843  1  0.034351  0  -0.015887  -0.05199  0  3.97179  0
C  C94  1  0.52302037  0.22820021  0.05801118  1  0.313356  0  0.083382  0.152339  0  4.014809  0
C  C95  1  0.53388458  0.20208541  0.00210122  1  0.431294  0  0.068776  0.155721  0  4.035587  0
C  C96  1  0.49700160  0.30734893  0.14671414  1  -0.054714  0  -0.097045  -0.098517  0  3.967267  0
C  C97  1  0.49682677  0.35935026  0.18661763  1  0.029546  0  -0.097074  -0.099156  0  3.96773  0
C  C98  1  0.52302957  0.43849323  0.27532286  1  0.312883  0  0.083502  0.152431  0  4.014569  0
C  C99  1  0.49914496  0.38173172  0.24396273  1  0.034992  0  -0.015823  -0.051958  0  3.971476  0
C  C100  1  0.47827809  0.35212287  0.27101456  1  0.459361  0  0.086429  0.159184  0  4.005534  0
C  C101  1  0.46443345  0.37833577  0.32709606  1  0.359814  0  0.069804  0.154377  0  4.032271  0
C  C102  1  0.49693620  0.43441829  0.35714053  1  -0.087091  0  -0.032175  -0.234621  0  4.002088  0
C  C103  1  0.53389630  0.46460196  0.33123195  1  0.430054  0  0.068966  0.156065  0  4.035373  0
N  N104  1  0.56730007  0.32846030  0.85467067  1  -1.154302  0  -0.623552  -0.641675  0  3.27369  0
N  N105  1  0.55215742  0.38580546  0.80303140  1  -1.184109  0  -0.614973  -0.619047  0  3.308396  0
N  N106  1  0.43275413  0.16129492  0.67921064  1  -1.226125  0  -0.623141  -0.642916  0  3.277043  0
N  N107  1  0.45775644  0.21962451  0.62936694  1  -1.252884  0  -0.607506  -0.601779  0  3.302316  0
N  N108  1  0.45778155  0.44702018  0.70394712  1  -1.254961  0  -0.607635  -0.6017  0  3.302362  0
N  N109  1  0.43276823  0.50535315  0.65411115  1  -1.224953  0  -0.623179  -0.642945  0  3.277164  0
N  N110  1  0.55216500  0.28083985  0.53027501  1  -1.183906  0  -0.615094  -0.619013  0  3.308546  0
N  N111  1  0.56732870  0.33819733  0.47864689  1  -1.154086  0  -0.623594  -0.641646  0  3.274028  0
N  N112  1  0.56729734  0.02621201  0.67154100  1  -1.186312  0  -0.6236  -0.64172  0  3.273677  0
N  N113  1  0.55214633  0.91722778  0.61419491  1  -1.188628  0  -0.614925  -0.619012  0  3.308411  0
N  N114  1  0.43276167  0.01791551  0.83870524  1  -1.196842  0  -0.623161  -0.642931  0  3.277163  0
N  N115  1  0.45774757  0.90974174  0.78037376  1  -1.184413  0  -0.607496  -0.601703  0  3.302292  0
N  N116  1  0.45777624  0.75692933  0.55297816  1  -1.158687  0  -0.607627  -0.601606  0  3.30239  0
N  N117  1  0.43276871  0.64875783  0.49464382  1  -1.198231  0  -0.623131  -0.64288  0  3.277157  0
N  N118  1  0.55216725  0.74943669  0.71915933  1  -1.188033  0  -0.615135  -0.619099  0  3.308665  0
N  N119  1  0.56732342  0.64044996  0.66180126  1  -1.18673  0  -0.623651  -0.641734  0  3.274163  0
N  N120  1  0.56728971  0.14533441  0.97379024  1  -1.154556  0  -0.623538  -0.641724  0  3.273787  0
N  N121  1  0.55213978  0.19697303  0.08277292  1  -1.192992  0  -0.614987  -0.619019  0  3.3087  0
N  N122  1  0.43276911  0.32079271  0.98208297  1  -1.163104  0  -0.62303  -0.642685  0  3.277035  0
N  N123  1  0.45775085  0.37063679  0.09025711  1  -1.178748  0  -0.607477  -0.601808  0  3.302087  0
N  N124  1  0.45776652  0.29605087  0.24306827  1  -1.179358  0  -0.607483  -0.601388  0  3.302385  0
N  N125  1  0.43276660  0.34588688  0.35123840  1  -1.162887  0  -0.623295  -0.643121  0  3.277242  0
N  N126  1  0.55216202  0.46972551  0.25056426  1  -1.193333  0  -0.615159  -0.619081  0  3.308743  0
N  N127  1  0.56732037  0.52135200  0.35954971  1  -1.155284  0  -0.623681  -0.641614  0  3.274184  0
O  O128  1  0.72647849  0.55775097  0.55587736  1  -1.265989  0  -0.242328  -0.602352  0  2.389254  0
O  O129  1  0.72647354  0.49812574  0.44224662  1  -1.265529  0  -0.24224  -0.602312  0  2.389297  0
O  O130  1  0.72648438  0.44412079  0.50187121  1  -1.263671  0  -0.242338  -0.602282  0  2.388978  0
O  O131  1  0.25922092  0.56076657  0.50879640  1  -1.257544  0  -0.242025  -0.6014  0  2.391199  0
O  O132  1  0.25922405  0.49120208  0.55196816  1  -1.251192  0  -0.241991  -0.601398  0  2.391373  0
O  O133  1  0.25922119  0.44802933  0.43923180  1  -1.258345  0  -0.241977  -0.601353  0  2.391272  0
O  O134  1  0.72647074  0.16855087  0.89108494  1  -1.266503  0  -0.242348  -0.60254  0  2.389491  0
O  O135  1  0.72647058  0.22253849  0.83145140  1  -1.262515  0  -0.242322  -0.602531  0  2.389551  0
O  O136  1  0.72647647  0.10891358  0.77746211  1  -1.26642  0  -0.242338  -0.602606  0  2.389549  0
O  O137  1  0.25920691  0.21864099  0.89409286  1  -1.258298  0  -0.241857  -0.60097  0  2.391145  0
O  O138  1  0.25922054  0.10590891  0.82454660  1  -1.256958  0  -0.241894  -0.601127  0  2.391055  0
O  O139  1  0.25920673  0.17545437  0.78136138  1  -1.251719  0  -0.241821  -0.601017  0  2.39114  0
