# generated using pymatgen
data_Er2Cu3H30C24(NO4)6
_symmetry_space_group_name_H-M   'P 1'
_cell_length_a   13.38881418
_cell_length_b   13.38872534
_cell_length_c   14.25006325
_cell_angle_alpha   90.00099138
_cell_angle_beta   89.99883990
_cell_angle_gamma   120.00072139
_symmetry_Int_Tables_number   1
_chemical_formula_structural   Er2Cu3H30C24(NO4)6
_chemical_formula_sum   'Er4 Cu6 H60 C48 N12 O48'
_cell_volume   2212.20624200
_cell_formula_units_Z   2
loop_
 _symmetry_equiv_pos_site_id
 _symmetry_equiv_pos_as_xyz
  1  'x, y, z'
loop_
 _atom_site_type_symbol
 _atom_site_label
 _atom_site_symmetry_multiplicity
 _atom_site_fract_x
 _atom_site_fract_y
 _atom_site_fract_z
 _atom_site_occupancy
 _atom_site_pbe_bader_charge
 _atom_site_pbe_bader_spin_density
 _atom_site_pbe_cm5_charge
 _atom_site_pbe_ddec_charge
 _atom_site_pbe_ddec_spin_density
 _atom_site_pbe_ddec_sum_bond_order
 _atom_site_pbe_magmom
Er  Er0  1  0.66666410  0.33333580  0.66832464  1  2.189929  0.002494  1.504743  2.098768  0.003465  2.136065  0.006
Er  Er1  1  0.33331908  0.66665635  0.83167995  1  2.190106  0.002494  1.504709  2.098906  0.003464  2.135706  0.006
Er  Er2  1  0.33331929  0.66666368  0.33167234  1  2.189736  0.002491  1.504767  2.098954  0.00346  2.135848  0.006
Er  Er3  1  0.66666754  0.33332047  0.16831282  1  2.189655  0.002489  1.504817  2.099011  0.003457  2.135639  0.006
Cu  Cu4  1  0.50000563  0.50001194  0.49999989  1  1.046489  0.577146  0.743594  0.765506  0.73378  2.19914  0.576
Cu  Cu5  1  0.49999077  0.99999488  0.50001096  1  1.04539  0.577118  0.743614  0.76561  0.733786  2.199175  0.576
Cu  Cu6  1  0.99999248  0.49997907  0.49999796  1  1.04676  0.577102  0.743594  0.765285  0.733772  2.199339  0.576
Cu  Cu7  1  0.99999860  0.50001171  0.99999504  1  1.045558  0.577139  0.743641  0.765571  0.73381  2.199295  0.576
Cu  Cu8  1  0.50000459  0.00000601  0.99998661  1  1.046716  0.577118  0.743527  0.765444  0.733786  2.199416  0.576
Cu  Cu9  1  0.50000571  0.49998205  0.00001264  1  1.046522  0.577138  0.743495  0.765597  0.73377  2.199124  0.576
H  H10  1  0.32369847  0.35989425  0.41633694  1  0.504266  -0.000207  0.290492  0.253803  3.6e-05  1.017083  0.0
H  H11  1  0.64011348  0.96380277  0.41634514  1  0.502691  -0.000242  0.29049  0.253845  3.6e-05  1.017081  0.0
H  H12  1  0.03620828  0.67629508  0.41634644  1  0.498639  -0.000189  0.290474  0.253736  3.6e-05  1.017148  0.0
H  H13  1  0.96379802  0.64011648  0.08366865  1  0.502541  -0.000241  0.290467  0.253835  3.6e-05  1.017049  0.0
H  H14  1  0.67632362  0.03621561  0.08365246  1  0.498414  -0.000188  0.290511  0.253854  3.6e-05  1.016951  0.0
H  H15  1  0.35987578  0.32367419  0.08366129  1  0.504403  -0.000206  0.290429  0.253706  3.6e-05  1.0171  0.0
H  H16  1  0.67630001  0.64011254  0.58365021  1  0.504547  -0.000207  0.290471  0.2538  3.5e-05  1.01713  0.0
H  H17  1  0.35988184  0.03619224  0.58366166  1  0.502675  -0.000241  0.290478  0.253767  3.6e-05  1.017109  0.0
H  H18  1  0.96380733  0.32369607  0.58366388  1  0.498534  -0.00019  0.290463  0.253761  3.5e-05  1.017171  0.0
H  H19  1  0.03620216  0.35989460  0.91633955  1  0.502587  -0.000242  0.290496  0.253793  3.6e-05  1.016988  0.0
H  H20  1  0.32369823  0.96379471  0.91633470  1  0.498525  -0.000189  0.290482  0.253772  3.6e-05  1.017137  0.0
H  H21  1  0.64010550  0.67629902  0.91634621  1  0.504565  -0.000207  0.290483  0.253855  3.6e-05  1.017095  0.0
H  H22  1  0.30442706  0.16830921  0.47447988  1  0.027609  0.006293  0.110004  0.105082  0.003165  0.975209  0.004
H  H23  1  0.83169561  0.13613787  0.47448094  1  0.06555  0.006191  0.110057  0.105055  0.003165  0.975301  0.004
H  H24  1  0.86388403  0.69556865  0.47446972  1  0.053397  0.006217  0.109972  0.105063  0.003167  0.975082  0.004
H  H25  1  0.13613405  0.83170708  0.02552953  1  0.065243  0.006192  0.110048  0.105101  0.003166  0.975112  0.004
H  H26  1  0.69556903  0.86387384  0.02551607  1  0.053578  0.006212  0.109997  0.105018  0.003165  0.975269  0.004
H  H27  1  0.16830182  0.30443019  0.02552005  1  0.027469  0.006295  0.110029  0.105057  0.003166  0.975345  0.004
H  H28  1  0.69557029  0.83170768  0.52552622  1  0.027381  0.006295  0.11005  0.105057  0.003166  0.975197  0.004
H  H29  1  0.16829014  0.86386223  0.52551955  1  0.065331  0.006192  0.110032  0.104969  0.003166  0.975294  0.004
H  H30  1  0.13613937  0.30443115  0.52552586  1  0.053213  0.006215  0.110052  0.105018  0.003165  0.975291  0.004
H  H31  1  0.86386635  0.16830078  0.97449201  1  0.065486  0.006191  0.110035  0.10505  0.003166  0.975374  0.004
H  H32  1  0.30443400  0.13612542  0.97447319  1  0.053648  0.006216  0.10999  0.105067  0.003166  0.975238  0.004
H  H33  1  0.83170189  0.69555942  0.97447763  1  0.02752  0.006294  0.110038  0.104978  0.003166  0.975294  0.004
H  H34  1  0.28785838  0.26043206  0.55548533  1  0.095235  0.000262  0.120169  0.122357  2.9e-05  0.97016  0.0
H  H35  1  0.73958230  0.02745348  0.55549180  1  0.0922  0.000264  0.120224  0.122412  2.9e-05  0.970161  0.0
H  H36  1  0.97256686  0.71214204  0.55549232  1  0.09873  0.00026  0.120178  0.12237  2.9e-05  0.970165  0.0
H  H37  1  0.02744814  0.73959438  0.94452785  1  0.091499  0.000264  0.120208  0.122415  2.9e-05  0.970099  0.0
H  H38  1  0.71213993  0.97255777  0.94449587  1  0.098435  0.000259  0.120241  0.122402  2.8e-05  0.970207  0.0
H  H39  1  0.26041725  0.28787383  0.94450725  1  0.095355  0.000262  0.120225  0.122409  2.9e-05  0.970155  0.0
H  H40  1  0.71214142  0.73958986  0.44451515  1  0.095423  0.000262  0.120197  0.122347  2.9e-05  0.970092  0.0
H  H41  1  0.26041345  0.97256352  0.44452062  1  0.092027  0.000264  0.120185  0.122331  2.9e-05  0.970196  0.0
H  H42  1  0.02743060  0.28783441  0.44452501  1  0.098095  0.000259  0.120204  0.122395  2.9e-05  0.970117  0.0
H  H43  1  0.97255373  0.26042098  0.05548317  1  0.091756  0.000264  0.120228  0.122462  2.9e-05  0.970131  0.0
H  H44  1  0.28786180  0.02744279  0.05548146  1  0.098307  0.00026  0.120178  0.12238  2.9e-05  0.970133  0.0
H  H45  1  0.73958100  0.71213619  0.05548412  1  0.095439  0.000262  0.120205  0.122378  2.9e-05  0.970068  0.0
H  H46  1  0.39597899  0.31028330  0.29346272  1  0.116467  0.001806  0.12117  0.13051  0.000936  0.96669  0.001
H  H47  1  0.68971783  0.08568331  0.29347145  1  0.092673  0.00186  0.12114  0.130351  0.000937  0.966709  0.001
H  H48  1  0.91432851  0.60402770  0.29347211  1  0.084479  0.001869  0.121157  0.130418  0.000937  0.966756  0.001
H  H49  1  0.08569343  0.68972944  0.20654280  1  0.092387  0.001861  0.121144  0.13032  0.000937  0.966782  0.001
H  H50  1  0.60405648  0.91433102  0.20653058  1  0.08464  0.001867  0.121182  0.130326  0.000936  0.966881  0.001
H  H51  1  0.31026371  0.39595368  0.20654250  1  0.115977  0.001806  0.121188  0.130358  0.000936  0.966942  0.001
H  H52  1  0.60403685  0.68972705  0.70653286  1  0.116313  0.001807  0.121141  0.130338  0.000937  0.966789  0.001
H  H53  1  0.31027195  0.91430530  0.70653606  1  0.092504  0.001859  0.121153  0.130387  0.000936  0.966883  0.001
H  H54  1  0.08569980  0.39597615  0.70654031  1  0.084049  0.001869  0.121151  0.130387  0.000937  0.966766  0.001
H  H55  1  0.91431227  0.31027163  0.79346471  1  0.092471  0.001859  0.121158  0.130317  0.000936  0.966891  0.001
H  H56  1  0.39596496  0.08569614  0.79346219  1  0.084199  0.001868  0.121138  0.130334  0.000937  0.966895  0.001
H  H57  1  0.68972642  0.60403010  0.79346079  1  0.116244  0.001807  0.121125  0.130351  0.000937  0.966908  0.001
H  H58  1  0.46286030  0.25799246  0.36845150  1  0.12188  0.000366  0.124363  0.135561  0.00019  0.998013  0.0
H  H59  1  0.74200582  0.20486498  0.36845194  1  0.141835  0.000358  0.124343  0.135455  0.00019  0.998017  0.0
H  H60  1  0.79514255  0.53713790  0.36845482  1  0.10008  0.000374  0.124308  0.135491  0.000189  0.998104  0.0
H  H61  1  0.20486207  0.74199568  0.13155576  1  0.141925  0.000358  0.124327  0.135467  0.00019  0.998045  0.0
H  H62  1  0.53716564  0.79515183  0.13154883  1  0.100115  0.000375  0.124363  0.135528  0.00019  0.997916  0.0
H  H63  1  0.25799052  0.46284927  0.13155861  1  0.122392  0.000367  0.12433  0.135481  0.00019  0.998013  0.0
H  H64  1  0.53714390  0.74200712  0.63156302  1  0.122335  0.000366  0.124375  0.13557  0.00019  0.997921  0.0
H  H65  1  0.25798445  0.79513360  0.63155557  1  0.141725  0.000358  0.124399  0.135534  0.00019  0.998033  0.0
H  H66  1  0.20486829  0.46286401  0.63155198  1  0.099831  0.000375  0.124404  0.135528  0.00019  0.998041  0.0
H  H67  1  0.79513535  0.25798678  0.86844263  1  0.141739  0.000358  0.124409  0.135552  0.00019  0.997934  0.0
H  H68  1  0.46287419  0.20486440  0.86844815  1  0.099984  0.000374  0.124307  0.135418  0.00019  0.99809  0.0
H  H69  1  0.74199226  0.53712543  0.86843977  1  0.121959  0.000366  0.124292  0.135495  0.00019  0.997971  0.0
C  C70  1  0.44592793  0.26079443  0.56992377  1  1.587489  0.002274  0.20764  0.624952  0.001292  4.173622  0.002
C  C71  1  0.73919978  0.18515266  0.56992109  1  1.585388  0.002278  0.207926  0.625533  0.001293  4.173587  0.002
C  C72  1  0.81485563  0.55406722  0.56992335  1  1.58824  0.002268  0.207571  0.624879  0.001293  4.173555  0.002
C  C73  1  0.18513901  0.73920770  0.93008431  1  1.586357  0.002277  0.207761  0.625127  0.001292  4.173928  0.002
C  C74  1  0.55405519  0.81485506  0.93007932  1  1.590801  0.002263  0.207728  0.625234  0.001293  4.173748  0.002
C  C75  1  0.26080487  0.44595467  0.93009876  1  1.58705  0.002274  0.207963  0.625607  0.001292  4.173386  0.002
C  C76  1  0.55407500  0.73922286  0.43007110  1  1.587449  0.002275  0.207546  0.624863  0.001293  4.173888  0.002
C  C77  1  0.26079220  0.81486661  0.43006958  1  1.58578  0.002278  0.207665  0.624979  0.001293  4.173564  0.002
C  C78  1  0.18513346  0.44590863  0.43006661  1  1.587313  0.002268  0.20759  0.624793  0.001293  4.173837  0.002
C  C79  1  0.81486582  0.26081665  0.06992109  1  1.586443  0.002278  0.20777  0.625325  0.001293  4.173443  0.002
C  C80  1  0.44594367  0.18514090  0.06991135  1  1.591036  0.002264  0.207852  0.625332  0.001293  4.173478  0.002
C  C81  1  0.73920335  0.55405583  0.06992278  1  1.587572  0.002276  0.207628  0.625185  0.001293  4.173727  0.002
C  C82  1  0.34917909  0.25385005  0.50823649  1  0.279532  0.000453  -0.067973  -0.178328  0.000351  3.897802  -0.002
C  C83  1  0.74615759  0.09534495  0.50823986  1  0.243311  0.000546  -0.068077  -0.178242  0.00035  3.897819  -0.002
C  C84  1  0.90467186  0.65082306  0.50823865  1  0.241435  0.000545  -0.067872  -0.178174  0.000352  3.897466  -0.002
C  C85  1  0.09534309  0.74616658  0.99177336  1  0.244154  0.000545  -0.068042  -0.178325  0.000349  3.897766  -0.002
C  C86  1  0.65082552  0.90466677  0.99175394  1  0.238872  0.000547  -0.067985  -0.178232  0.00035  3.897807  -0.002
C  C87  1  0.25384063  0.34918378  0.99176654  1  0.279375  0.000454  -0.068011  -0.178315  0.000351  3.898186  -0.002
C  C88  1  0.65082318  0.74617089  0.49176400  1  0.27955  0.000454  -0.068033  -0.178086  0.000351  3.897646  -0.002
C  C89  1  0.25383178  0.90466050  0.49176413  1  0.243457  0.000546  -0.067965  -0.177963  0.00035  3.897694  -0.002
C  C90  1  0.09533692  0.34916299  0.49176395  1  0.243648  0.000542  -0.068005  -0.177999  0.00035  3.897599  -0.002
C  C91  1  0.90466094  0.25384662  0.00823555  1  0.243741  0.000547  -0.067992  -0.178327  0.00035  3.897986  -0.002
C  C92  1  0.34918242  0.09533654  0.00822900  1  0.238703  0.000548  -0.067886  -0.178217  0.000351  3.897797  -0.002
C  C93  1  0.74616047  0.65081442  0.00823605  1  0.279519  0.000453  -0.067964  -0.178001  0.000349  3.8976  -0.002
C  C94  1  0.44880522  0.33125215  0.35733719  1  0.211475  0.001537  -0.067534  -0.205319  0.000917  3.860025  -0.001
C  C95  1  0.66874725  0.11754388  0.35734180  1  0.219682  0.001483  -0.067536  -0.204849  0.000916  3.860216  -0.001
C  C96  1  0.88246056  0.55119804  0.35734328  1  0.265209  0.001462  -0.067474  -0.205145  0.000915  3.860243  -0.001
C  C97  1  0.11753932  0.66874336  0.14267033  1  0.219436  0.001482  -0.067439  -0.204774  0.000915  3.859973  -0.001
C  C98  1  0.55122322  0.88247032  0.14266023  1  0.264485  0.00146  -0.067705  -0.205251  0.000915  3.860428  -0.001
C  C99  1  0.33124608  0.44878514  0.14267073  1  0.210897  0.001536  -0.067654  -0.205087  0.000916  3.860407  -0.001
C  C100  1  0.55120668  0.66875168  0.64266400  1  0.210928  0.001535  -0.067577  -0.205044  0.000915  3.860228  -0.001
C  C101  1  0.33124239  0.88245234  0.64266360  1  0.219929  0.001483  -0.06759  -0.205078  0.000914  3.86038  -0.001
C  C102  1  0.11754775  0.44879444  0.64266212  1  0.265116  0.001466  -0.067599  -0.205041  0.000917  3.860365  -0.001
C  C103  1  0.88245454  0.33124415  0.85733437  1  0.219683  0.001482  -0.067584  -0.205012  0.000914  3.860289  -0.001
C  C104  1  0.44879454  0.11754110  0.85733114  1  0.265456  0.00146  -0.067436  -0.204834  0.000914  3.860224  -0.001
C  C105  1  0.66874437  0.55119982  0.85733186  1  0.211132  0.001535  -0.067427  -0.204905  0.000914  3.860095  -0.001
C  C106  1  0.56573740  0.43679091  0.33805281  1  1.580983  0.001191  0.233128  0.667601  0.00099  4.08697  0.001
C  C107  1  0.56320439  0.12892107  0.33805175  1  1.582031  0.001211  0.233256  0.667723  0.000989  4.08718  0.001
C  C108  1  0.87106483  0.43426628  0.33805902  1  1.581697  0.001193  0.23306  0.667789  0.000986  4.086955  0.001
C  C109  1  0.12891611  0.56319624  0.16195700  1  1.581925  0.00121  0.233166  0.667561  0.000988  4.087227  0.001
C  C110  1  0.43429313  0.87107569  0.16195379  1  1.581911  0.001194  0.233364  0.668189  0.000988  4.086566  0.001
C  C111  1  0.43679644  0.56570575  0.16195972  1  1.582175  0.001186  0.233138  0.667734  0.000991  4.08707  0.001
C  C112  1  0.43428364  0.56320826  0.66195540  1  1.581657  0.001186  0.233184  0.667783  0.000988  4.087303  0.001
C  C113  1  0.43678048  0.87106349  0.66194944  1  1.582318  0.00121  0.233353  0.668005  0.000987  4.087104  0.001
C  C114  1  0.12892966  0.56572360  0.66194708  1  1.582421  0.001195  0.233277  0.667791  0.00099  4.08706  0.001
C  C115  1  0.87107072  0.43678337  0.83804840  1  1.582378  0.00121  0.233327  0.668069  0.000988  4.086888  0.001
C  C116  1  0.56571039  0.12891113  0.83803337  1  1.582156  0.001196  0.233122  0.667686  0.000988  4.087004  0.001
C  C117  1  0.56319346  0.43428125  0.83803867  1  1.582243  0.001188  0.23325  0.667897  0.00099  4.087005  0.001
N  N118  1  0.39030236  0.34711905  0.43889470  1  -1.082152  0.096376  -0.499623  -0.281344  0.061792  3.563487  0.08
N  N119  1  0.65289079  0.04318580  0.43889818  1  -1.077887  0.096448  -0.499621  -0.281785  0.061803  3.564025  0.08
N  N120  1  0.95682050  0.60969829  0.43889918  1  -1.065686  0.096378  -0.499605  -0.281317  0.061804  3.56384  0.08
N  N121  1  0.04318244  0.65289893  0.06111478  1  -1.077523  0.096454  -0.499768  -0.281792  0.061805  3.563846  0.08
N  N122  1  0.60972194  0.95683103  0.06109853  1  -1.065585  0.096369  -0.499592  -0.281422  0.061798  3.56379  0.08
N  N123  1  0.34710019  0.39027966  0.06111047  1  -1.081739  0.096393  -0.499635  -0.281531  0.061803  3.563998  0.08
N  N124  1  0.60970367  0.65289961  0.56110157  1  -1.081888  0.096378  -0.499702  -0.28171  0.061793  3.564395  0.08
N  N125  1  0.34709307  0.95680724  0.56110933  1  -1.077761  0.096442  -0.499795  -0.281726  0.061797  3.564099  0.08
N  N126  1  0.04319279  0.39028622  0.56110622  1  -1.065703  0.096357  -0.499709  -0.281689  0.061795  3.564246  0.08
N  N127  1  0.95681572  0.34710669  0.93888922  1  -1.077759  0.096442  -0.49967  -0.281528  0.061799  3.563781  0.08
N  N128  1  0.39029281  0.04318341  0.93888652  1  -1.066233  0.096369  -0.499755  -0.281593  0.061798  3.564104  0.08
N  N129  1  0.65289457  0.60970099  0.93889352  1  -1.082164  0.096396  -0.499683  -0.281816  0.061806  3.563971  0.08
O  O130  1  0.54543091  0.35164405  0.56306395  1  -1.185285  -0.000943  -0.39859  -0.678841  -0.001457  2.335083  0.0
O  O131  1  0.64834016  0.19378344  0.56306029  1  -1.178005  -0.000938  -0.398729  -0.679157  -0.001459  2.335206  0.0
O  O132  1  0.80619218  0.45456214  0.56306161  1  -1.177933  -0.000938  -0.398566  -0.678827  -0.001458  2.335327  0.0
O  O133  1  0.19377806  0.64835340  0.93694662  1  -1.177795  -0.000938  -0.398624  -0.678854  -0.001459  2.335289  0.0
O  O134  1  0.45455750  0.80620629  0.93694191  1  -1.177513  -0.000939  -0.398642  -0.679016  -0.001458  2.335224  0.0
O  O135  1  0.35163265  0.54546165  0.93699411  1  -1.185558  -0.000945  -0.398586  -0.67899  -0.001458  2.33503  0.0
O  O136  1  0.45456865  0.64838108  0.43693514  1  -1.184942  -0.000944  -0.398457  -0.678865  -0.001457  2.335458  0.0
O  O137  1  0.35163918  0.80621112  0.43693178  1  -1.177551  -0.000937  -0.398557  -0.678924  -0.001458  2.335205  0.0
O  O138  1  0.19378321  0.54540949  0.43691432  1  -1.178358  -0.000936  -0.398606  -0.678878  -0.001457  2.335582  0.0
O  O139  1  0.80623341  0.35167328  0.06304194  1  -1.178083  -0.000937  -0.398666  -0.67899  -0.001458  2.335308  0.0
O  O140  1  0.54543955  0.19378700  0.06303542  1  -1.177346  -0.000938  -0.398618  -0.678959  -0.001458  2.335225  0.0
O  O141  1  0.64835411  0.45455239  0.06306462  1  -1.185493  -0.000943  -0.398605  -0.679122  -0.001457  2.335309  0.0
O  O142  1  0.42424494  0.17924592  0.62562272  1  -1.195057  0.001432  -0.32042  -0.591005  0.000643  2.177989  0.001
O  O143  1  0.82074531  0.24504778  0.62561388  1  -1.200493  0.001435  -0.320507  -0.591241  0.000642  2.178415  0.001
O  O144  1  0.75498480  0.57575077  0.62562139  1  -1.195997  0.001434  -0.320408  -0.591003  0.000643  2.177809  0.001
O  O145  1  0.24501627  0.82074634  0.87438008  1  -1.201419  0.001435  -0.320471  -0.591123  0.000643  2.178287  0.001
O  O146  1  0.57571955  0.75496833  0.87438273  1  -1.196234  0.001433  -0.320445  -0.591169  0.000643  2.178179  0.001
O  O147  1  0.17927713  0.42428940  0.87437680  1  -1.194518  0.001432  -0.320722  -0.591525  0.000643  2.177653  0.001
O  O148  1  0.57576949  0.82076733  0.37436443  1  -1.195539  0.001433  -0.320363  -0.590907  0.000644  2.177789  0.001
O  O149  1  0.17925583  0.75500566  0.37436064  1  -1.201062  0.001437  -0.320409  -0.591013  0.000644  2.177931  0.001
O  O150  1  0.24499872  0.42422468  0.37436506  1  -1.196057  0.001434  -0.320317  -0.590867  0.000644  2.177768  0.001
O  O151  1  0.75498120  0.17929135  0.12563865  1  -1.201399  0.001436  -0.320506  -0.591326  0.000643  2.177711  0.001
O  O152  1  0.42428109  0.24501390  0.12562477  1  -1.196361  0.001433  -0.320619  -0.591315  0.000643  2.177747  0.001
O  O153  1  0.82075160  0.57573644  0.12562018  1  -1.195081  0.001432  -0.320374  -0.591043  0.000643  2.178235  0.001
O  O154  1  0.60268141  0.52351922  0.39302064  1  -1.104875  0.086684  -0.316929  -0.513589  0.054959  2.27741  0.079
O  O155  1  0.47649223  0.07916819  0.39303859  1  -1.1129  0.086667  -0.317015  -0.513596  0.05496  2.277497  0.079
O  O156  1  0.92079601  0.39729145  0.39305309  1  -1.110431  0.086719  -0.317011  -0.513745  0.054974  2.277822  0.079
O  O157  1  0.07917337  0.47649620  0.10695000  1  -1.112668  0.08668  -0.316998  -0.513572  0.054968  2.277449  0.079
O  O158  1  0.39734671  0.92084569  0.10697093  1  -1.110028  0.086701  -0.316971  -0.513765  0.054966  2.277187  0.079
O  O159  1  0.52352825  0.60263399  0.10699733  1  -1.10595  0.08669  -0.316796  -0.513548  0.054962  2.277257  0.079
O  O160  1  0.39732882  0.47649674  0.60696441  1  -1.105157  0.08673  -0.316999  -0.513674  0.054985  2.277711  0.079
O  O161  1  0.52349795  0.92082599  0.60696611  1  -1.112817  0.086684  -0.31713  -0.513835  0.054972  2.277664  0.079
O  O162  1  0.07917961  0.60267697  0.60695511  1  -1.110495  0.086694  -0.31701  -0.513542  0.054962  2.277515  0.079
O  O163  1  0.92082934  0.52350188  0.89303154  1  -1.112872  0.086661  -0.317103  -0.5139  0.054958  2.27766  0.079
O  O164  1  0.60265939  0.07913855  0.89300781  1  -1.109917  0.086708  -0.317044  -0.51386  0.054972  2.277674  0.079
O  O165  1  0.47647383  0.39733933  0.89302140  1  -1.105552  0.086704  -0.317051  -0.51386  0.05497  2.277316  0.079
O  O166  1  0.62348825  0.43492763  0.26874449  1  -1.211266  0.013045  -0.409369  -0.673851  0.008098  2.345722  0.011
O  O167  1  0.56504832  0.18850002  0.26872831  1  -1.209652  0.013047  -0.409274  -0.673913  0.008101  2.345705  0.011
O  O168  1  0.81150110  0.37653662  0.26872750  1  -1.213611  0.013052  -0.409125  -0.673759  0.008103  2.345492  0.011
O  O169  1  0.18848180  0.56503581  0.23128035  1  -1.209448  0.013037  -0.409219  -0.67377  0.008095  2.345894  0.011
O  O170  1  0.37654895  0.81148570  0.23126653  1  -1.213763  0.013046  -0.409262  -0.673945  0.008099  2.345566  0.011
O  O171  1  0.43493817  0.62347136  0.23126165  1  -1.211086  0.013045  -0.409287  -0.673875  0.008098  2.345671  0.011
O  O172  1  0.37653829  0.56504513  0.73127004  1  -1.21152  0.013047  -0.409203  -0.673864  0.0081  2.345778  0.011
O  O173  1  0.43493735  0.81147327  0.73125814  1  -1.210166  0.013046  -0.409291  -0.673981  0.0081  2.345864  0.011
O  O174  1  0.18850609  0.62346594  0.73126948  1  -1.213828  0.013043  -0.409269  -0.673907  0.008097  2.345724  0.011
O  O175  1  0.81148500  0.43493844  0.76873136  1  -1.210061  0.013043  -0.40929  -0.673912  0.008098  2.345629  0.011
O  O176  1  0.62345468  0.18849951  0.76871922  1  -1.213918  0.013046  -0.409128  -0.673629  0.008098  2.345595  0.011
O  O177  1  0.56503798  0.37653984  0.76872551  1  -1.211786  0.013045  -0.409219  -0.67382  0.008098  2.345911  0.011
