# generated using pymatgen
data_AlH12C27(NO4)3
_symmetry_space_group_name_H-M   'P 1'
_cell_length_a   4.11172904
_cell_length_b   27.78839770
_cell_length_c   27.80766314
_cell_angle_alpha   60.20281194
_cell_angle_beta   90.30889119
_cell_angle_gamma   90.08158033
_symmetry_Int_Tables_number   1
_chemical_formula_structural   AlH12C27(NO4)3
_chemical_formula_sum   'Al3 H36 C81 N9 O36'
_cell_volume   2757.14929963
_cell_formula_units_Z   3
loop_
 _symmetry_equiv_pos_site_id
 _symmetry_equiv_pos_as_xyz
  1  'x, y, z'
loop_
 _atom_site_type_symbol
 _atom_site_label
 _atom_site_symmetry_multiplicity
 _atom_site_fract_x
 _atom_site_fract_y
 _atom_site_fract_z
 _atom_site_occupancy
 _atom_site_pbe_bader_charge
 _atom_site_pbe_bader_spin_density
 _atom_site_pbe_cm5_charge
 _atom_site_pbe_ddec_charge
 _atom_site_pbe_ddec_spin_density
 _atom_site_pbe_ddec_sum_bond_order
 _atom_site_pbe_magmom
Al  Al0  1  0.99143366  0.49958343  0.50064024  1  2.514686  0  0.443342  1.632769  0  2.521869  0
Al  Al1  1  0.94849924  0.83238502  0.83250461  1  2.513508  0  0.439259  1.629182  0  2.520957  0
Al  Al2  1  0.06409200  0.16638006  0.16787301  1  2.512547  0  0.439168  1.631036  0  2.519308  0
H  H3  1  0.51259148  0.07686087  0.92236632  1  0.057148  0  0.103528  0.105447  0  1.016637  0
H  H4  1  0.51579538  0.25507380  0.83436164  1  0.055732  0  0.102828  0.103945  0  1.019179  0
H  H5  1  0.52295704  0.16625707  0.74428940  1  0.055049  0  0.104665  0.107715  0  1.013563  0
H  H6  1  0.72878847  0.92698635  0.90418251  1  0.10946  0  0.116912  0.127023  0  0.965838  0
H  H7  1  0.76542317  0.01368313  0.90777091  1  0.04762  0  0.108118  0.108723  0  0.991201  0
H  H8  1  0.19673753  0.09699891  0.75685810  1  0.109787  0  0.113527  0.121799  0  1.012173  0
H  H9  1  0.24624730  0.08954749  0.98248125  1  0.121982  0  0.113608  0.12236  0  1.011187  0
H  H10  1  0.82185593  0.23760992  0.99903569  1  0.072928  0  0.116561  0.125609  0  0.966298  0
H  H11  1  0.81383317  0.24037189  0.90907496  1  0.047962  0  0.107199  0.107717  0  0.993325  0
H  H12  1  0.78005134  0.31567229  0.76333009  1  0.097951  0  0.112599  0.122244  0  0.996618  0
H  H13  1  0.24133410  0.33109323  0.59674970  1  0.10197  0  0.115406  0.123947  0  0.976686  0
H  H14  1  0.25000144  0.24047819  0.68323007  1  0.091599  0  0.106137  0.109038  0  0.995624  0
H  H15  1  0.50739571  0.50155910  0.07707276  1  0.039017  0  0.103972  0.106545  0  1.016005  0
H  H16  1  0.49806308  0.58939527  0.16791774  1  0.054892  0  0.103263  0.104554  0  1.01744  0
H  H17  1  0.50139886  0.41095825  0.25511317  1  0.06457  0  0.105387  0.108639  0  1.011726  0
H  H18  1  0.28655596  0.33415227  0.09301750  1  0.059187  0  0.11425  0.122916  0  0.970607  0
H  H19  1  0.25232013  0.42384522  0.09065959  1  0.042299  0  0.10771  0.10884  0  0.991772  0
H  H20  1  0.82732474  0.35562196  0.24107848  1  0.123186  0  0.114026  0.121857  0  1.01227  0
H  H21  1  0.77732888  0.57372506  0.01903105  1  0.095106  0  0.114031  0.122096  0  1.013021  0
H  H22  1  0.19364198  0.73724129  0.00265021  1  0.093668  0  0.113962  0.122469  0  0.969931  0
H  H23  1  0.20005064  0.65029143  0.09241303  1  0.083429  0  0.106914  0.107866  0  0.993024  0
H  H24  1  0.22935241  0.57714573  0.23885086  1  0.094787  0  0.113328  0.122336  0  0.997302  0
H  H25  1  0.76698452  0.42637890  0.40487157  1  0.116118  0  0.11317  0.120985  0  0.981356  0
H  H26  1  0.77224778  0.42380569  0.31726539  1  0.069684  0  0.106372  0.109255  0  0.995468  0
H  H27  1  0.48597235  0.92312557  0.49817668  1  0.036564  0  0.104203  0.106415  0  1.01601  0
H  H28  1  0.49000582  0.83238617  0.41023594  1  0.079861  0  0.103377  0.104699  0  1.017797  0
H  H29  1  0.48850989  0.74493995  0.58855324  1  0.068104  0  0.105264  0.108294  0  1.013578  0
H  H30  1  0.71632783  0.90639294  0.66588703  1  0.129224  0  0.119539  0.131754  0  0.961793  0
H  H31  1  0.73805701  0.90962874  0.57574224  1  0.097579  0  0.108966  0.109839  0  0.990463  0
H  H32  1  0.17197184  0.75868874  0.64428585  1  0.118816  0  0.113875  0.121604  0  1.012283  0
H  H33  1  0.22461688  0.98245369  0.42529068  1  0.116723  0  0.113932  0.122667  0  1.011688  0
H  H34  1  0.81530034  0.99658851  0.26359800  1  0.113318  0  0.119681  0.131673  0  0.960025  0
H  H35  1  0.79386016  0.90658367  0.35025753  1  0.09427  0  0.107918  0.1084  0  0.992634  0
H  H36  1  0.75843901  0.76199959  0.42217551  1  0.081543  0  0.113341  0.122973  0  0.997264  0
H  H37  1  0.23400567  0.59483539  0.57260574  1  0.098444  0  0.117536  0.127885  0  0.97455  0
H  H38  1  0.22675205  0.68199551  0.57600601  1  0.061468  0  0.107742  0.110751  0  0.992643  0
C  C39  1  0.49225481  0.57367665  0.49830139  1  1.610468  0  0.280717  0.672808  0  4.049029  0
C  C40  1  0.49367664  0.42718389  0.57536826  1  1.611907  0  0.276644  0.664648  0  4.075949  0
C  C41  1  0.49227743  0.49818406  0.42793904  1  1.607759  0  0.278368  0.669263  0  4.063331  0
C  C42  1  0.44335751  0.90818404  0.82891407  1  1.678156  0  0.275582  0.661904  0  4.115533  0
C  C43  1  0.45878952  0.75908668  0.90605373  1  1.662349  0  0.278945  0.665359  0  4.100083  0
C  C44  1  0.44294979  0.82950405  0.76093448  1  1.665322  0  0.282933  0.672117  0  4.088897  0
C  C45  1  0.55723544  0.16348094  0.09530355  1  1.648622  0  0.275338  0.661578  0  4.114879  0
C  C46  1  0.57111333  0.23964165  0.16848752  1  1.641981  0  0.278794  0.664477  0  4.105246  0
C  C47  1  0.56041665  0.09455789  0.24178865  1  1.64981  0  0.283253  0.672399  0  4.085845  0
C  C48  1  0.52467403  0.16600104  0.88443126  1  0.011405  0  -0.007015  0.080253  0  4.023364  0
C  C49  1  0.51503306  0.11605836  0.88338562  1  -0.051816  0  -0.085781  -0.174368  0  3.921762  0
C  C50  1  0.50572643  0.11556654  0.83327519  1  0.001534  0  -0.006118  0.081026  0  4.021875  0
C  C51  1  0.51411313  0.16631578  0.78343598  1  -0.051809  0  -0.085723  -0.175434  0  3.918788  0
C  C52  1  0.52194844  0.21694628  0.78305547  1  0.016483  0  -0.006369  0.080544  0  4.017783  0
C  C53  1  0.52477912  0.21605866  0.83397920  1  -0.056428  0  -0.087641  -0.179784  0  3.927599  0
C  C54  1  0.61104015  0.96448039  0.87210947  1  -0.032542  0  -0.07768  -0.091929  0  3.961239  0
C  C55  1  0.62954302  0.01348911  0.87409985  1  -0.015516  0  -0.077243  -0.109825  0  3.959252  0
C  C56  1  0.48607158  0.06276771  0.83256763  1  0.018872  0  -0.003749  0.070075  0  4.000067  0
C  C57  1  0.32056617  0.06081588  0.78948403  1  0.064384  0  -0.075522  -0.162506  0  3.951758  0
C  C58  1  0.30685008  0.01182652  0.78757748  1  0.175916  0  0.080234  0.049931  0  3.929187  0
C  C59  1  0.45086143  0.96270427  0.82839248  1  -0.03321  0  0.007638  -0.053152  0  3.910724  0
C  C60  1  0.37902687  0.12238686  0.98451283  1  -0.007268  0  -0.075993  -0.163105  0  3.951577  0
C  C61  1  0.39217374  0.12070384  0.03525197  1  0.172847  0  0.081326  0.050935  0  3.930891  0
C  C62  1  0.54761538  0.16187290  0.04189524  1  0.06693  0  0.007338  -0.0543  0  3.909991  0
C  C63  1  0.69449985  0.20534225  0.99500169  1  0.027612  0  -0.078092  -0.090619  0  3.961383  0
C  C64  1  0.68731847  0.20695499  0.94415885  1  -0.040997  0  -0.077847  -0.111268  0  3.96039  0
C  C65  1  0.52920849  0.16543385  0.93790345  1  0.011975  0  -0.00377  0.07077  0  3.999426  0
C  C66  1  0.66465449  0.31750408  0.72712011  1  0.018839  0  -0.083014  -0.187076  0  3.958641  0
C  C67  1  0.66236181  0.36792488  0.67787495  1  0.164715  0  0.089954  0.077584  0  3.894728  0
C  C68  1  0.51492267  0.37396613  0.62946399  1  0.093633  0  0.001769  -0.074686  0  3.912917  0
C  C69  1  0.36795985  0.32654957  0.63329960  1  -0.033661  0  -0.074899  -0.074256  0  3.968947  0
C  C70  1  0.37392358  0.27573992  0.68203263  1  -0.069631  0  -0.085278  -0.130471  0  3.975626  0
C  C71  1  0.52315381  0.27015075  0.73019338  1  -0.007501  0  -0.002203  0.081339  0  4.001025  0
C  C72  1  0.49318083  0.55156280  0.11655763  1  0.020525  0  -0.006658  0.081388  0  4.023669  0
C  C73  1  0.50470449  0.50114843  0.11646284  1  -0.004598  0  -0.085298  -0.174598  0  3.921575  0
C  C74  1  0.51568263  0.45033974  0.16597107  1  -0.004773  0  -0.006995  0.079648  0  4.026197  0
C  C75  1  0.50820069  0.45037351  0.21637759  1  -0.034381  0  -0.085383  -0.174382  0  3.917754  0
C  C76  1  0.49717921  0.50003886  0.21781143  1  0.016673  0  -0.006055  0.079137  0  4.022271  0
C  C77  1  0.49189545  0.55039162  0.16747953  1  -0.096541  0  -0.087291  -0.178828  0  3.927128  0
C  C78  1  0.40740984  0.33935455  0.12512538  1  -0.002849  0  -0.079845  -0.094492  0  3.969221  0
C  C79  1  0.39009711  0.39005276  0.12381136  1  0.009953  0  -0.078515  -0.112203  0  3.960985  0
C  C80  1  0.53574015  0.39745858  0.16555896  1  0.018293  0  -0.00334  0.071751  0  4.001834  0
C  C81  1  0.70223047  0.35250499  0.20816351  1  -0.032741  0  -0.075616  -0.163585  0  3.957961  0
C  C82  1  0.71343611  0.30200958  0.20945467  1  0.203281  0  0.081529  0.051639  0  3.940068  0
C  C83  1  0.56787306  0.29390681  0.16846402  1  0.06966  0  0.00662  -0.055031  0  3.914598  0
C  C84  1  0.64311277  0.60833438  0.01715740  1  0.078022  0  -0.076052  -0.16478  0  3.959345  0
C  C85  1  0.62986256  0.65707895  0.96660526  1  0.240773  0  0.081687  0.052748  0  3.940692  0
C  C86  1  0.47239479  0.70468175  0.95982856  1  -0.035844  0  0.005869  -0.057459  0  3.913778  0
C  C87  1  0.32369809  0.70123961  0.00667797  1  -0.031798  0  -0.079567  -0.093955  0  3.968284  0
C  C88  1  0.32989206  0.65211713  0.05746365  1  -0.068562  0  -0.07871  -0.112063  0  3.96015  0
C  C89  1  0.48957873  0.60462596  0.06362752  1  -0.018392  0  -0.004118  0.071261  0  4.002318  0
C  C90  1  0.34438170  0.54283377  0.27495501  1  -0.006465  0  -0.082538  -0.187161  0  3.960227  0
C  C91  1  0.33847673  0.54325196  0.32467009  1  0.179573  0  0.091486  0.08135  0  3.889792  0
C  C92  1  0.48416965  0.50066561  0.37300677  1  0.052794  0  0.000276  -0.078577  0  3.920326  0
C  C93  1  0.64014498  0.45821581  0.36841387  1  -0.004577  0  -0.076734  -0.07791  0  3.977939  0
C  C94  1  0.64233440  0.45700457  0.31909993  1  -0.015898  0  -0.086756  -0.1309  0  3.978396  0
C  C95  1  0.49254375  0.49947246  0.27119561  1  -0.039354  0  -0.002161  0.083392  0  4.003447  0
C  C96  1  0.49784927  0.88365252  0.44814700  1  0.002196  0  -0.006505  0.08114  0  4.024197  0
C  C97  1  0.48666271  0.88372313  0.49855062  1  -0.076416  0  -0.085228  -0.174223  0  3.920697  0
C  C98  1  0.47505029  0.83417525  0.54929989  1  0.022148  0  -0.006291  0.080449  0  4.023966  0
C  C99  1  0.48108262  0.78373722  0.54919742  1  -0.025041  0  -0.084898  -0.174173  0  3.918565  0
C  C100  1  0.49144851  0.78232526  0.49955353  1  -0.046769  0  -0.006187  0.07932  0  4.020325  0
C  C101  1  0.49658498  0.83272991  0.44926295  1  -0.027937  0  -0.086804  -0.178844  0  3.928042  0
C  C102  1  0.59731070  0.87409348  0.66080979  1  -0.009631  0  -0.073963  -0.085005  0  3.944804  0
C  C103  1  0.60650446  0.87596508  0.60980978  1  -0.048814  0  -0.076597  -0.110364  0  3.953553  0
C  C104  1  0.45982195  0.83436694  0.60231164  1  -0.013007  0  -0.003155  0.07052  0  4.002425  0
C  C105  1  0.29878181  0.79139964  0.64745352  1  0.047772  0  -0.075542  -0.163185  0  3.958362  0
C  C106  1  0.29618195  0.78944554  0.69824761  1  0.179029  0  0.081168  0.04931  0  3.946229  0
C  C107  1  0.44458028  0.83012396  0.70646504  1  -0.019557  0  0.007315  -0.057432  0  3.91494  0
C  C108  1  0.36133219  0.98386455  0.39122193  1  0.016338  0  -0.076479  -0.166553  0  3.9617  0
C  C109  1  0.38433617  0.03450658  0.34280507  1  0.24517  0  0.081194  0.051137  0  3.94467  0
C  C110  1  0.54568082  0.04068994  0.29588410  1  -0.042696  0  0.008042  -0.057212  0  3.912373  0
C  C111  1  0.68663505  0.99317082  0.29936099  1  -0.010614  0  -0.074247  -0.084684  0  3.944503  0
C  C112  1  0.67066627  0.94224715  0.34826657  1  -0.067277  0  -0.075894  -0.109708  0  3.953373  0
C  C113  1  0.50858302  0.93667554  0.39520721  1  0.01562  0  -0.003638  0.070655  0  4.003318  0
C  C114  1  0.64551870  0.72569779  0.45629113  1  0.038443  0  -0.082776  -0.188916  0  3.96086  0
C  C115  1  0.65187504  0.67622217  0.45535373  1  0.152957  0  0.090578  0.07953  0  3.897031  0
C  C116  1  0.50809014  0.62772641  0.49755439  1  0.045611  0  0.000625  -0.080095  0  3.922234  0
C  C117  1  0.35641081  0.63159702  0.54066234  1  0.03604  0  -0.072401  -0.071906  0  3.960223  0
C  C118  1  0.35372924  0.68070520  0.54236559  1  -0.034198  0  -0.084324  -0.128044  0  3.968882  0
C  C119  1  0.49863343  0.72897263  0.49993134  1  -0.031644  0  -0.0012  0.084048  0  4.0004  0
N  N120  1  0.13696035  0.01344614  0.73993392  1  0.384555  0  0.060745  0.514583  0  4.199694  0
N  N121  1  0.23920589  0.07277659  0.08293422  1  0.396495  0  0.060403  0.514921  0  4.201088  0
N  N122  1  0.80037022  0.41481675  0.68289650  1  0.429107  0  0.064743  0.522382  0  4.180491  0
N  N123  1  0.87655075  0.25557084  0.25730814  1  0.414879  0  0.062008  0.513026  0  4.196987  0
N  N124  1  0.77881911  0.65643675  0.91879214  1  0.38343  0  0.061401  0.512354  0  4.19701  0
N  N125  1  0.19035389  0.59449022  0.31972420  1  0.428703  0  0.066018  0.520439  0  4.175825  0
N  N126  1  0.13864992  0.74138688  0.74486227  1  0.400073  0  0.06146  0.514617  0  4.197121  0
N  N127  1  0.24137361  0.08304485  0.34290486  1  0.397501  0  0.061126  0.51421  0  4.196507  0
N  N128  1  0.79731732  0.68133322  0.40405663  1  0.437346  0  0.064625  0.520784  0  4.179633  0
O  O129  1  0.72872608  0.47222512  0.46061987  1  -1.256767  0  -0.241552  -0.601249  0  2.322256  0
O  O130  1  0.71909849  0.56261598  0.47445508  1  -1.247861  0  -0.232219  -0.597202  0  2.42832  0
O  O131  1  0.72120846  0.46195961  0.56413925  1  -1.251275  0  -0.232044  -0.597629  0  2.435037  0
O  O132  1  0.25895603  0.52118266  0.43852274  1  -1.245723  0  -0.227014  -0.592831  0  2.451631  0
O  O133  1  0.25051817  0.43291710  0.54432500  1  -1.244735  0  -0.23441  -0.593114  0  2.338544  0
O  O134  1  0.25274740  0.54197173  0.52375868  1  -1.246261  0  -0.233731  -0.594176  0  2.344257  0
O  O135  1  0.68606401  0.80817313  0.79259597  1  -1.2487  0  -0.224017  -0.589244  0  2.459767  0
O  O136  1  0.68343869  0.89778921  0.80734729  1  -1.237929  0  -0.226722  -0.583319  0  2.418428  0
O  O137  1  0.68760050  0.79332832  0.89805344  1  -1.259065  0  -0.245152  -0.607596  0  2.345449  0
O  O138  1  0.20836017  0.85480332  0.76845429  1  -1.254025  0  -0.233091  -0.593906  0  2.391167  0
O  O139  1  0.21015477  0.76818024  0.87590886  1  -1.245541  0  -0.218583  -0.574136  0  2.443704  0
O  O140  1  0.20920621  0.87586171  0.85515554  1  -1.255476  0  -0.238762  -0.596041  0  2.348141  0
O  O141  1  0.80808542  0.12493868  0.23226752  1  -1.239344  0  -0.222486  -0.583534  0  2.444355  0
O  O142  1  0.80334183  0.14234324  0.12617831  1  -1.245364  0  -0.225207  -0.582178  0  2.418044  0
O  O143  1  0.80339902  0.23209848  0.14269145  1  -1.25754  0  -0.243649  -0.606508  0  2.348912  0
O  O144  1  0.32947719  0.10268495  0.20793714  1  -1.250718  0  -0.23405  -0.597152  0  2.40204  0
O  O145  1  0.32817781  0.20848757  0.18978509  1  -1.24421  0  -0.220265  -0.579409  0  2.461264  0
O  O146  1  0.32659711  0.19005799  0.10196326  1  -1.249829  0  -0.240004  -0.595687  0  2.344842  0
O  O147  1  0.18373517  0.97423576  0.73165595  1  -0.410866  0  -0.097086  -0.283384  0  1.969086  0
O  O148  1  0.95972640  0.05403583  0.71114424  1  -0.469902  0  -0.145056  -0.345772  0  1.893242  0
O  O149  1  0.31399066  0.06418416  0.12963551  1  -0.416158  0  -0.096543  -0.282248  0  1.974884  0
O  O150  1  0.04831388  0.04402656  0.07310606  1  -0.467725  0  -0.144103  -0.345178  0  1.894877  0
O  O151  1  0.04639609  0.43844544  0.65669896  1  -0.432299  0  -0.10023  -0.290764  0  2.007447  0
O  O152  1  0.65826272  0.42488942  0.71609121  1  -0.429186  0  -0.130277  -0.323159  0  1.869462  0
O  O153  1  0.82110323  0.20880006  0.26472331  1  -0.411187  0  -0.073305  -0.255035  0  2.063295  0
O  O154  1  0.05301618  0.26655041  0.28696955  1  -0.470542  0  -0.143819  -0.341431  0  1.886536  0
O  O155  1  0.69845868  0.69411891  0.87258331  1  -0.389669  0  -0.074851  -0.257289  0  2.060905  0
O  O156  1  0.96781996  0.61782951  0.92829963  1  -0.464282  0  -0.142607  -0.339707  0  1.88849  0
O  O157  1  0.94124096  0.59062229  0.34573544  1  -0.423012  0  -0.094687  -0.28592  0  2.034515  0
O  O158  1  0.32569744  0.63821562  0.28631873  1  -0.414143  0  -0.120616  -0.309276  0  1.874332  0
O  O159  1  0.20265088  0.73330063  0.79168007  1  -0.413701  0  -0.08011  -0.265795  0  2.055813  0
O  O160  1  0.95762917  0.71211494  0.73413592  1  -0.466727  0  -0.142065  -0.339271  0  1.887314  0
O  O161  1  0.32975347  0.12891717  0.30569047  1  -0.395865  0  -0.081974  -0.269037  0  2.062805  0
O  O162  1  0.04916926  0.07464013  0.38056415  1  -0.466911  0  -0.141657  -0.338267  0  1.890091  0
O  O163  1  0.04741029  0.65534988  0.40780584  1  -0.428707  0  -0.097313  -0.290747  0  2.035804  0
O  O164  1  0.65917556  0.71462810  0.36038645  1  -0.424271  0  -0.121416  -0.310375  0  1.875199  0
