# generated using pymatgen
data_AlH3C6O6F
_symmetry_space_group_name_H-M   'P 1'
_cell_length_a   6.68687180
_cell_length_b   8.80091469
_cell_length_c   11.19918455
_cell_angle_alpha   98.12054160
_cell_angle_beta   72.12039558
_cell_angle_gamma   75.58899525
_symmetry_Int_Tables_number   1
_chemical_formula_structural   AlH3C6O6F
_chemical_formula_sum   'Al2 H6 C12 O12 F2'
_cell_volume   590.33023790
_cell_formula_units_Z   2
loop_
 _symmetry_equiv_pos_site_id
 _symmetry_equiv_pos_as_xyz
  1  'x, y, z'
loop_
 _atom_site_type_symbol
 _atom_site_label
 _atom_site_symmetry_multiplicity
 _atom_site_fract_x
 _atom_site_fract_y
 _atom_site_fract_z
 _atom_site_occupancy
 _atom_site_pbe_bader_charge
 _atom_site_pbe_bader_spin_density
 _atom_site_pbe_cm5_charge
 _atom_site_pbe_ddec_charge
 _atom_site_pbe_ddec_spin_density
 _atom_site_pbe_ddec_sum_bond_order
 _atom_site_pbe_magmom
Al  Al0  1  0.99999087  0.50000565  0.50000540  1  2.505417  0  0.405744  1.634696  0  2.587062  0
Al  Al1  1  0.50000946  0.49999582  0.50000394  1  2.498782  0  0.399208  1.643231  0  2.584276  0
H  H2  1  0.86928355  0.38196201  0.34270821  1  0.631979  0  0.355024  0.43415  0  0.849667  0
H  H3  1  0.13073215  0.61803394  0.65729681  1  0.631936  0  0.355039  0.434138  0  0.849679  0
H  H4  1  0.89192313  0.45158779  0.86576293  1  0.150815  0  0.119087  0.148188  0  0.997336  0
H  H5  1  0.10807081  0.54841162  0.13424172  1  0.151241  0  0.119119  0.148209  0  0.997654  0
H  H6  1  0.27945157  0.86864952  0.51874038  1  0.65925  0  0.316885  0.359385  0  0.945605  0
H  H7  1  0.72057088  0.13134120  0.48124437  1  0.659433  0  0.316927  0.35952  0  0.94547  0
C  C8  1  0.34525887  0.21197359  0.48978580  1  1.537424  0  0.257539  0.604353  0  4.105864  0
C  C9  1  0.37233212  0.49169440  0.27176277  1  1.610045  0  0.276941  0.670724  0  4.072094  0
C  C10  1  0.65477879  0.78802253  0.51020349  1  1.53799  0  0.257637  0.604424  0  4.105382  0
C  C11  1  0.62766171  0.50829303  0.72823256  1  1.610256  0  0.276863  0.671157  0  4.071834  0
C  C12  1  0.44223317  0.49409450  0.13206602  1  0.061233  0  -0.009223  -0.114225  0  3.950778  0
C  C13  1  0.55774968  0.50591334  0.86794813  1  0.061403  0  -0.009201  -0.11677  0  3.953493  0
C  C14  1  0.66216661  0.46737522  0.05273492  1  0.388477  0  0.109225  0.269721  0  4.029573  0
C  C15  1  0.33780471  0.53262576  0.94728115  1  0.388499  0  0.109227  0.270327  0  4.029774  0
C  C16  1  0.71966069  0.47325476  0.92410367  1  0.087067  0  -0.082075  -0.193448  0  3.965504  0
C  C17  1  0.28033084  0.52673449  0.07591280  1  0.086828  0  -0.081995  -0.194075  0  3.964944  0
C  C18  1  0.39705658  0.04251355  0.50066247  1  0.546044  0  0.061103  0.032848  0  4.065377  0
C  C19  1  0.60296894  0.95747738  0.49931544  1  0.607723  0  0.060971  0.032611  0  4.065505  0
O  O20  1  0.15393008  0.28140866  0.49131029  1  -1.24721  0  -0.228461  -0.555638  0  2.350234  0
O  O21  1  0.50978193  0.49891984  0.32774501  1  -1.261204  0  -0.23077  -0.593607  0  2.369187  0
O  O22  1  0.49889146  0.72207157  0.52150898  1  -1.263371  0  -0.241849  -0.613038  0  2.389849  0
O  O23  1  0.82144779  0.51624009  0.67559749  1  -1.257541  0  -0.228373  -0.583502  0  2.328183  0
O  O24  1  0.84607581  0.71860061  0.50869695  1  -1.247242  0  -0.228335  -0.555414  0  2.350441  0
O  O25  1  0.49018145  0.50107729  0.67226073  1  -1.261432  0  -0.230722  -0.593482  0  2.368844  0
O  O26  1  0.50112766  0.27791549  0.47848347  1  -1.263631  0  -0.241646  -0.612729  0  2.390528  0
O  O27  1  0.17854882  0.48376056  0.32440761  1  -1.25759  0  -0.228447  -0.583751  0  2.328569  0
O  O28  1  0.80722929  0.42417402  0.43560733  1  -1.424785  0  -0.446735  -0.985752  0  2.174661  0
O  O29  1  0.19277386  0.57582185  0.56439731  1  -1.424659  0  -0.446763  -0.985706  0  2.174506  0
O  O30  1  0.22660642  0.98246128  0.51254169  1  -1.120338  0  -0.340899  -0.382326  0  2.353535  0
O  O31  1  0.77340856  0.01754070  0.48744747  1  -1.120737  0  -0.34092  -0.38241  0  2.35354  0
F  F32  1  0.82941487  0.43075260  0.09918373  1  -0.630993  0  -0.090047  -0.135948  0  1.374535  0
F  F33  1  0.17059082  0.56922439  0.90080460  1  -0.631107  0  -0.09008  -0.135862  0  1.374249  0
