# generated using pymatgen
data_ZnH6C9NO3
_symmetry_space_group_name_H-M   'P 1'
_cell_length_a   6.63391248
_cell_length_b   12.34674202
_cell_length_c   14.26916960
_cell_angle_alpha   113.35300664
_cell_angle_beta   90.00087028
_cell_angle_gamma   90.00037485
_symmetry_Int_Tables_number   1
_chemical_formula_structural   ZnH6C9NO3
_chemical_formula_sum   'Zn4 H24 C36 N4 O12'
_cell_volume   1073.00405470
_cell_formula_units_Z   4
loop_
 _symmetry_equiv_pos_site_id
 _symmetry_equiv_pos_as_xyz
  1  'x, y, z'
loop_
 _atom_site_type_symbol
 _atom_site_label
 _atom_site_symmetry_multiplicity
 _atom_site_fract_x
 _atom_site_fract_y
 _atom_site_fract_z
 _atom_site_occupancy
 _atom_site_hle17_bader_spin_density
 _atom_site_hle17_ddec_charge
 _atom_site_hle17_ddec_spin_density
 _atom_site_hle17_ddec_sum_bond_order
 _atom_site_hle17_magmom
 _atom_site_hse06_10hf_bader_spin_density
 _atom_site_hse06_10hf_ddec_charge
 _atom_site_hse06_10hf_ddec_spin_density
 _atom_site_hse06_10hf_ddec_sum_bond_order
 _atom_site_hse06_10hf_magmom
 _atom_site_hse06_bader_spin_density
 _atom_site_hse06_ddec_charge
 _atom_site_hse06_ddec_spin_density
 _atom_site_hse06_ddec_sum_bond_order
 _atom_site_hse06_magmom
 _atom_site_pbe_bader_spin_density
 _atom_site_pbe_cm5_charge
 _atom_site_pbe_ddec_charge
 _atom_site_pbe_ddec_spin_density
 _atom_site_pbe_ddec_sum_bond_order
 _atom_site_pbe_magmom
Zn  Zn0  1  0.25000654  0.18587467  0.98008116  1  0  1.077365  0  1.856066  0  0  0.895976  0  2.330162  0  0  0.941413  0  2.274411  0  0  0.661466  0.864256  0  2.368536  0
Zn  Zn1  1  0.74999566  0.81413259  0.01991876  1  0  1.077377  0  1.856063  0  0  0.895996  0  2.330153  0  0  0.941429  0  2.274414  0  0  0.661483  0.864283  0  2.368517  0
Zn  Zn2  1  0.24999719  0.87157592  0.97781778  1  0  1.167719  0  1.730387  0  0  1.005567  0  2.19216  0  0  1.056583  0  2.127568  0  0  0.643406  0.96911  0  2.237078  0
Zn  Zn3  1  0.75001255  0.12843124  0.02218421  1  0  1.167734  0  1.730429  0  0  1.005559  0  2.192201  0  0  1.056573  0  2.127604  0  0  0.643456  0.969094  0  2.237108  0
H  H4  1  0.94171384  0.82546043  0.88005587  1  0  0.405149  0  0.887237  0  0  0.383466  0  0.94154  0  0  0.392244  0  0.92885  0  0  0.280452  0.377194  0  0.950609  0
H  H5  1  0.44175136  0.17456682  0.11995417  1  0  0.405188  0  0.88732  0  0  0.383409  0  0.94166  0  0  0.392199  0  0.928957  0  0  0.280371  0.377132  0  0.950732  0
H  H6  1  0.05828082  0.17453704  0.11994254  1  0  0.405177  0  0.887197  0  0  0.383495  0  0.9415  0  0  0.392273  0  0.928809  0  0  0.280459  0.377218  0  0.950573  0
H  H7  1  0.55825385  0.82541574  0.88003664  1  0  0.405234  0  0.887242  0  0  0.383464  0  0.941563  0  0  0.392253  0  0.92886  0  0  0.28042  0.377193  0  0.950629  0
H  H8  1  0.25001559  0.45926930  0.11933554  1  0  0.081815  0  0.912135  0  0  0.0927  0  0.967592  0  0  0.09551  0  0.965482  0  0  0.121589  0.090581  0  0.969269  0
H  H9  1  0.75000169  0.54072640  0.88066221  1  0  0.081798  0  0.912176  0  0  0.092692  0  0.967626  0  0  0.095501  0  0.965519  0  0  0.121574  0.090575  0  0.969311  0
H  H10  1  0.25001335  0.65200586  0.09339460  1  0  0.118163  0  0.953862  0  0  0.126223  0  1.015693  0  0  0.130208  0  1.013594  0  0  0.107843  0.123311  0  1.017399  0
H  H11  1  0.75000995  0.34798620  0.90660462  1  0  0.118251  0  0.953824  0  0  0.126286  0  1.015676  0  0  0.130303  0  1.013537  0  0  0.10784  0.123369  0  1.017387  0
H  H12  1  0.25001736  0.64035301  0.91460400  1  0  0.116103  0  0.949437  0  0  0.126806  0  1.007405  0  0  0.130007  0  1.004061  0  0  0.114101  0.124331  0  1.010032  0
H  H13  1  0.75000444  0.35964514  0.08539957  1  0  0.116194  0  0.949245  0  0  0.126888  0  1.0072  0  0  0.130087  0  1.003861  0  0  0.11413  0.124409  0  1.009826  0
H  H14  1  0.25000781  0.44485535  0.77007040  1  0  0.105946  0  0.941436  0  0  0.121687  0  0.989996  0  0  0.124456  0  0.989656  0  0  0.111586  0.119647  0  0.99046  0
H  H15  1  0.75000043  0.55514394  0.22992728  1  0  0.105867  0  0.941604  0  0  0.121609  0  0.990154  0  0  0.12438  0  0.989809  0  0  0.111585  0.119571  0  0.990616  0
H  H16  1  0.24998685  0.27143947  0.65780114  1  0  0.100907  0  0.968169  0  0  0.113554  0  1.025854  0  0  0.117084  0  1.023504  0  0  0.107266  0.111068  0  1.027574  0
H  H17  1  0.74999425  0.72855902  0.34219415  1  0  0.100896  0  0.968213  0  0  0.113562  0  1.025893  0  0  0.117089  0  1.023551  0  0  0.107317  0.111079  0  1.027615  0
H  H18  1  0.25001254  0.90078022  0.60641884  1  0  0.117629  0  0.951283  0  0  0.125602  0  1.013883  0  0  0.129729  0  1.011124  0  0  0.112522  0.122667  0  1.015983  0
H  H19  1  0.74998665  0.09922154  0.39358396  1  0  0.117619  0  0.951175  0  0  0.125605  0  1.01377  0  0  0.129735  0  1.011006  0  0  0.1125  0.122663  0  1.015864  0
H  H20  1  0.24998130  0.86135593  0.45902386  1  0  0.090563  0  0.951877  0  0  0.105584  0  1.005057  0  0  0.108379  0  1.003946  0  0  0.103114  0.103642  0  1.005913  0
H  H21  1  0.74998322  0.13864080  0.54097077  1  0  0.090553  0  0.951971  0  0  0.105601  0  1.00512  0  0  0.108396  0  1.004009  0  0  0.103125  0.103659  0  1.005962  0
H  H22  1  0.24998103  0.81084654  0.27344000  1  0  0.096463  0  0.945666  0  0  0.106838  0  1.005441  0  0  0.11048  0  1.003132  0  0  0.101839  0.104235  0  1.007144  0
H  H23  1  0.74999253  0.18915371  0.72655593  1  0  0.096468  0  0.945588  0  0  0.106863  0  1.005343  0  0  0.110504  0  1.003034  0  0  0.101869  0.104261  0  1.007035  0
H  H24  1  0.24999756  0.17752895  0.32666171  1  0  0.113148  0  0.924729  0  0  0.124827  0  0.977427  0  0  0.128675  0  0.975003  0  0  0.113463  0.121977  0  0.9793  0
H  H25  1  0.75001067  0.82247890  0.67334543  1  0  0.11318  0  0.92474  0  0  0.124861  0  0.977448  0  0  0.128704  0  0.975025  0  0  0.113519  0.122028  0  0.979328  0
H  H26  1  0.24999935  0.23149925  0.51240489  1  0  0.087463  0  0.957266  0  0  0.102113  0  1.009702  0  0  0.104929  0  1.008535  0  0  0.101975  0.100063  0  1.010672  0
H  H27  1  0.75000436  0.76849270  0.48759709  1  0  0.087419  0  0.957166  0  0  0.102028  0  1.009642  0  0  0.104867  0  1.008447  0  0  0.10191  0.099975  0  1.010628  0
C  C28  1  0.25000082  0.46106829  0.04341503  1  0  0.134408  0  3.726597  0  0  0.102752  0  3.986105  0  0  0.109004  0  4.00522  0  0  0.055745  0.098713  0  3.973306  0
C  C29  1  0.75000892  0.53893356  0.95658569  1  0  0.13447  0  3.726704  0  0  0.102797  0  3.986227  0  0  0.10905  0  4.005349  0  0  0.055726  0.098752  0  3.973444  0
C  C30  1  0.25001330  0.56643233  0.02920049  1  0  -0.110731  0  3.687619  0  0  -0.128269  0  3.945912  0  0  -0.135281  0  3.967973  0  0  -0.079338  -0.123776  0  3.93136  0
C  C31  1  0.75000849  0.43356764  0.97080235  1  0  -0.110935  0  3.68743  0  0  -0.128477  0  3.945701  0  0  -0.135513  0  3.967748  0  0  -0.079363  -0.12398  0  3.93115  0
C  C32  1  0.25000353  0.56042819  0.92942765  1  0  0.026309  0  3.668466  0  0  0.007894  0  3.917937  0  0  0.012165  0  3.935155  0  0  -0.054273  0.005309  0  3.906314  0
C  C33  1  0.75001374  0.43957513  0.07058063  1  0  0.026278  0  3.668215  0  0  0.007936  0  3.917595  0  0  0.012201  0  3.934831  0  0  -0.054264  0.005357  0  3.905961  0
C  C34  1  0.25000306  0.45037631  0.84818135  1  0  -0.155719  0  3.719691  0  0  -0.17461  0  3.964372  0  0  -0.182267  0  3.986313  0  0  -0.079917  -0.169617  0  3.949606  0
C  C35  1  0.75000216  0.54962545  0.15182144  1  0  -0.155583  0  3.720033  0  0  -0.174475  0  3.964706  0  0  -0.182133  0  3.986647  0  0  -0.079916  -0.169494  0  3.949943  0
C  C36  1  0.24999220  0.34865708  0.86867641  1  0  0.165923  0  3.784625  0  0  0.162157  0  4.026583  0  0  0.167775  0  4.048168  0  0  0.119639  0.158504  0  4.011911  0
C  C37  1  0.74999945  0.65133937  0.13132513  1  0  0.165973  0  3.784826  0  0  0.162144  0  4.026885  0  0  0.167761  0  4.048471  0  0  0.119676  0.158495  0  4.01221  0
C  C38  1  0.24999168  0.22714188  0.78851468  1  0  0.198749  0  3.765919  0  0  0.191188  0  4.013756  0  0  0.19923  0  4.0314  0  0  0.125414  0.185717  0  4.001749  0
C  C39  1  0.74999846  0.77285377  0.21148446  1  0  0.198688  0  3.765967  0  0  0.191124  0  4.013883  0  0  0.199165  0  4.03153  0  0  0.125383  0.185654  0  4.001878  0
C  C40  1  0.24999587  0.19986444  0.68387591  1  0  -0.178204  0  3.660255  0  0  -0.205656  0  3.909194  0  0  -0.212225  0  3.927498  0  0  -0.076166  -0.201296  0  3.896945  0
C  C41  1  0.74999277  0.80012947  0.31612189  1  0  -0.178073  0  3.660234  0  0  -0.205619  0  3.909211  0  0  -0.212187  0  3.927519  0  0  -0.076255  -0.201264  0  3.896979  0
C  C42  1  0.24999099  0.08166723  0.61295301  1  0  0.110623  0  3.744702  0  0  0.121043  0  3.98118  0  0  0.126094  0  4.002239  0  0  0.016769  0.11764  0  3.967115  0
C  C43  1  0.74999162  0.91832751  0.38704649  1  0  0.110424  0  3.744619  0  0  0.120998  0  3.98094  0  0  0.126046  0  4.00201  0  0  0.016777  0.117588  0  3.966885  0
C  C44  1  0.25000030  0.99482038  0.65332682  1  0  -0.139462  0  3.656618  0  0  -0.171323  0  3.909224  0  0  -0.177487  0  3.93023  0  0  -0.067666  -0.167419  0  3.895754  0
C  C45  1  0.74998532  0.00517445  0.34667061  1  0  -0.139312  0  3.656309  0  0  -0.171255  0  3.908876  0  0  -0.177415  0  3.929876  0  0  -0.067641  -0.167346  0  3.895393  0
C  C46  1  0.25001107  0.02808461  0.75855416  1  0  0.13055  0  3.733824  0  0  0.133063  0  3.975457  0  0  0.135611  0  3.993931  0  0  0.123748  0.131054  0  3.963471  0
C  C47  1  0.74999113  0.97191818  0.24144551  1  0  0.13044  0  3.733983  0  0  0.133021  0  3.975498  0  0  0.13557  0  3.993968  0  0  0.123716  0.131014  0  3.963507  0
C  C48  1  0.25002048  0.93821077  0.80627720  1  0  0.609063  0  3.933846  0  0  0.556804  0  4.231082  0  0  0.588672  0  4.226286  0  0  0.202831  0.535198  0  4.233635  0
C  C49  1  0.74998925  0.06177476  0.19370699  1  0  0.608902  0  3.93327  0  0  0.556658  0  4.23047  0  0  0.58853  0  4.225679  0  0  0.202778  0.535038  0  4.23303  0
C  C50  1  0.24999655  0.05072941  0.50150630  1  0  0.040265  0  3.765271  0  0  0.05571  0  3.999125  0  0  0.055689  0  4.023098  0  0  -0.006221  0.055875  0  3.982862  0
C  C51  1  0.74999208  0.94927946  0.49849772  1  0  0.040307  0  3.765228  0  0  0.055687  0  3.999108  0  0  0.055664  0  4.023089  0  0  -0.006207  0.055866  0  3.98283  0
C  C52  1  0.24998582  0.93207721  0.43163277  1  0  -0.10418  0  3.74244  0  0  -0.125555  0  3.995344  0  0  -0.129453  0  4.017303  0  0  -0.087624  -0.123009  0  3.980585  0
C  C53  1  0.74998774  0.06792740  0.56836617  1  0  -0.104197  0  3.742541  0  0  -0.12562  0  3.995539  0  0  -0.129516  0  4.017493  0  0  -0.087702  -0.123064  0  3.980749  0
C  C54  1  0.24998849  0.90275824  0.32710599  1  0  -0.068659  0  3.752892  0  0  -0.093334  0  4.007857  0  0  -0.093318  0  4.028885  0  0  -0.086373  -0.093085  0  3.993821  0
C  C55  1  0.74999110  0.09723926  0.67289173  1  0  -0.068681  0  3.752724  0  0  -0.093393  0  4.007726  0  0  -0.093377  0  4.028756  0  0  -0.086368  -0.093141  0  3.993679  0
C  C56  1  0.24998842  0.99085706  0.28852006  1  0  -0.052654  0  3.748626  0  0  -0.031926  0  3.984577  0  0  -0.040177  0  4.009147  0  0  -0.015691  -0.026714  0  3.968321  0
C  C57  1  0.75000022  0.00914208  0.71148107  1  0  -0.052498  0  3.748551  0  0  -0.031718  0  3.984455  0  0  -0.039967  0  4.00902  0  0  -0.015634  -0.026514  0  3.968227  0
C  C58  1  0.24999611  0.10923371  0.35690988  1  0  -0.047821  0  3.718058  0  0  -0.072533  0  3.968446  0  0  -0.072003  0  3.988234  0  0  -0.074795  -0.072621  0  3.954928  0
C  C59  1  0.75000458  0.89076447  0.64309299  1  0  -0.047911  0  3.718213  0  0  -0.072676  0  3.968622  0  0  -0.072144  0  3.988415  0  0  -0.074886  -0.072768  0  3.955134  0
C  C60  1  0.24999796  0.13837496  0.46157584  1  0  -0.109437  0  3.727113  0  0  -0.12819  0  3.974489  0  0  -0.132133  0  3.995936  0  0  -0.086258  -0.125459  0  3.959783  0
C  C61  1  0.74999519  0.86162765  0.53842797  1  0  -0.109332  0  3.726967  0  0  -0.128012  0  3.974324  0  0  -0.13197  0  3.995766  0  0  -0.086073  -0.125274  0  3.959634  0
C  C62  1  0.24999245  0.95850354  0.17587785  1  0  0.618175  0  3.948099  0  0  0.567122  0  4.245902  0  0  0.600031  0  4.241716  0  0  0.190823  0.544953  0  4.247847  0
C  C63  1  0.75000674  0.04150203  0.82411934  1  0  0.618166  0  3.947822  0  0  0.567063  0  4.24567  0  0  0.599972  0  4.241485  0  0  0.190649  0.544892  0  4.247627  0
N  N64  1  0.25000585  0.35531069  0.96536743  1  0  -0.341344  0  3.243763  0  0  -0.272646  0  3.509873  0  0  -0.289773  0  3.525839  0  0  -0.310626  -0.261206  0  3.499238  0
N  N65  1  0.75001293  0.64468843  0.03463439  1  0  -0.341391  0  3.243599  0  0  -0.272692  0  3.509753  0  0  -0.289817  0  3.52572  0  0  -0.310569  -0.261253  0  3.499118  0
N  N66  1  0.25000829  0.14121585  0.82393220  1  0  -0.356666  0  3.306491  0  0  -0.291185  0  3.57539  0  0  -0.306789  0  3.587491  0  0  -0.317291  -0.28064  0  3.56742  0
N  N67  1  0.74999391  0.85878250  0.17606654  1  0  -0.356698  0  3.306327  0  0  -0.291192  0  3.575157  0  0  -0.306793  0  3.587253  0  0  -0.317334  -0.280642  0  3.567179  0
O  O68  1  0.25000729  0.98574714  0.90560917  1  0  -0.679375  0  2.160887  0  0  -0.597391  0  2.451473  0  0  -0.628453  0  2.433777  0  0  -0.314819  -0.575589  0  2.463088  0
O  O69  1  0.74999189  0.01424945  0.09438892  1  0  -0.679104  0  2.16137  0  0  -0.597142  0  2.451944  0  0  -0.628195  0  2.434248  0  0  -0.314739  -0.575357  0  2.463569  0
O  O70  1  0.25004758  0.83147703  0.75068317  1  0  -0.568669  0  1.851998  0  0  -0.531239  0  2.049951  0  0  -0.550741  0  2.042333  0  0  -0.325813  -0.517633  0  2.054874  0
O  O71  1  0.74997271  0.16854245  0.24932406  1  0  -0.568824  0  1.850513  0  0  -0.531418  0  2.048475  0  0  -0.550934  0  2.040865  0  0  -0.32592  -0.517809  0  2.053394  0
O  O72  1  0.24999222  0.03817098  0.14068724  1  0  -0.636361  0  1.953741  0  0  -0.576107  0  2.189552  0  0  -0.60137  0  2.178027  0  0  -0.310991  -0.558608  0  2.197199  0
O  O73  1  0.75001903  0.96183633  0.85931130  1  0  -0.63643  0  1.95362  0  0  -0.576161  0  2.189468  0  0  -0.601412  0  2.177917  0  0  -0.310932  -0.55866  0  2.197118  0
O  O74  1  0.24999385  0.84838674  0.11748942  1  0  -0.639178  0  1.980474  0  0  -0.573294  0  2.233394  0  0  -0.602095  0  2.22319  0  0  -0.321348  -0.552974  0  2.239677  0
O  O75  1  0.75000534  0.15161867  0.88251191  1  0  -0.639263  0  1.980296  0  0  -0.573312  0  2.233178  0  0  -0.602116  0  2.222974  0  0  -0.321339  -0.552982  0  2.239457  0
O  O76  1  0.98535239  0.79713907  0.93174868  1  0  -0.964575  0  1.835561  0  0  -0.869436  0  2.116192  0  0  -0.901317  0  2.078496  0  0  -0.590403  -0.846286  0  2.141896  0
O  O77  1  0.48537052  0.20287818  0.06825237  1  0  -0.964588  0  1.835591  0  0  -0.869325  0  2.116225  0  0  -0.901225  0  2.078496  0  0  -0.59032  -0.84618  0  2.141934  0
O  O78  1  0.01464830  0.20286542  0.06825302  1  0  -0.964605  0  1.835582  0  0  -0.869462  0  2.116248  0  0  -0.901342  0  2.078547  0  0  -0.590428  -0.846314  0  2.14196  0
O  O79  1  0.51463017  0.79712455  0.93174868  1  0  -0.964638  0  1.835587  0  0  -0.86938  0  2.116215  0  0  -0.901279  0  2.07849  0  0  -0.590347  -0.846236  0  2.141919  0
