# generated using pymatgen
data_ZnH14C17N2O3
_symmetry_space_group_name_H-M   'P 1'
_cell_length_a   7.48908525
_cell_length_b   22.46849023
_cell_length_c   24.35287992
_cell_angle_alpha   89.99918371
_cell_angle_beta   96.98587322
_cell_angle_gamma   90.00079264
_symmetry_Int_Tables_number   1
_chemical_formula_structural   ZnH14C17N2O3
_chemical_formula_sum   'Zn8 H112 C136 N16 O24'
_cell_volume   4067.39955300
_cell_formula_units_Z   8
loop_
 _symmetry_equiv_pos_site_id
 _symmetry_equiv_pos_as_xyz
  1  'x, y, z'
loop_
 _atom_site_type_symbol
 _atom_site_label
 _atom_site_symmetry_multiplicity
 _atom_site_fract_x
 _atom_site_fract_y
 _atom_site_fract_z
 _atom_site_occupancy
 _atom_site_pbe_bader_charge
 _atom_site_pbe_bader_spin_density
 _atom_site_pbe_cm5_charge
 _atom_site_pbe_ddec_charge
 _atom_site_pbe_ddec_spin_density
 _atom_site_pbe_ddec_sum_bond_order
 _atom_site_pbe_magmom
Zn  Zn0  1  0.29518641  0.29252925  0.60329276  1  1.214562  0  0.641827  0.744284  0  2.501223  0
Zn  Zn1  1  0.70481856  0.79253349  0.89670349  1  1.214601  0  0.641854  0.744313  0  2.501148  0
Zn  Zn2  1  0.70482337  0.70746710  0.39670911  1  1.214572  0  0.641763  0.744187  0  2.501325  0
Zn  Zn3  1  0.29516678  0.20746731  0.10329180  1  1.21455  0  0.64186  0.744297  0  2.501192  0
Zn  Zn4  1  0.17338456  0.16404272  0.84617245  1  1.223089  0  0.651444  0.752203  0  2.504518  0
Zn  Zn5  1  0.82660791  0.66404281  0.65383368  1  1.223036  0  0.65145  0.752209  0  2.504481  0
Zn  Zn6  1  0.82660917  0.83595452  0.15383134  1  1.223084  0  0.651525  0.752278  0  2.504723  0
Zn  Zn7  1  0.17338848  0.33595889  0.34616938  1  1.222814  0  0.651397  0.752148  0  2.50461  0
H  H8  1  0.89988034  0.41485897  0.64509805  1  0.081248  0  0.095943  0.09448  0  1.043832  0
H  H9  1  0.10013315  0.91486018  0.85489567  1  0.080648  0  0.09596  0.094513  0  1.043867  0
H  H10  1  0.10011175  0.58513739  0.35489788  1  0.081  0  0.095935  0.094505  0  1.043932  0
H  H11  1  0.89989049  0.08514730  0.14508244  1  0.080852  0  0.095848  0.094395  0  1.043889  0
H  H12  1  0.12428202  0.45221112  0.72234299  1  0.084297  0  0.096509  0.095774  0  1.028736  0
H  H13  1  0.87572631  0.95221175  0.77765500  1  0.083289  0  0.096536  0.095872  0  1.0288  0
H  H14  1  0.87570217  0.54779101  0.27765720  1  0.08465  0  0.096496  0.095747  0  1.028718  0
H  H15  1  0.12432812  0.04780063  0.22232046  1  0.085772  0  0.096654  0.096032  0  1.028624  0
H  H16  1  0.07045499  0.43588517  0.81967286  1  0.049362  0  0.099557  0.094218  0  1.006379  0
H  H17  1  0.92954862  0.93588709  0.68032313  1  0.049016  0  0.099476  0.094098  0  1.006534  0
H  H18  1  0.92954000  0.56411786  0.18032892  1  0.049412  0  0.099529  0.094178  0  1.006511  0
H  H19  1  0.07050040  0.06412662  0.31965132  1  0.048933  0  0.099546  0.094182  0  1.006484  0
H  H20  1  0.79188949  0.38393880  0.84053158  1  0.082467  0  0.102516  0.098909  0  0.989139  0
H  H21  1  0.20810931  0.88393952  0.65945959  1  0.082461  0  0.102488  0.098847  0  0.989159  0
H  H22  1  0.20811607  0.61605622  0.15946522  1  0.082637  0  0.102493  0.098878  0  0.989066  0
H  H23  1  0.79192129  0.11605995  0.34052492  1  0.083189  0  0.102427  0.098703  0  0.989064  0
H  H24  1  0.56643408  0.34956230  0.76283770  1  0.075499  0  0.100693  0.10246  0  1.00971  0
H  H25  1  0.43356750  0.84956463  0.73715441  1  0.075459  0  0.100647  0.102404  0  1.00977  0
H  H26  1  0.43358233  0.65042916  0.23716193  1  0.075439  0  0.100658  0.102466  0  1.00967  0
H  H27  1  0.56644003  0.15043172  0.26282398  1  0.07583  0  0.100554  0.102289  0  1.009691  0
H  H28  1  0.05480112  0.32205089  0.49359484  1  0.108008  0  0.121339  0.090976  0  0.98864  0
H  H29  1  0.94522124  0.82205023  0.00639827  1  0.108174  0  0.121325  0.090967  0  0.988712  0
H  H30  1  0.94520888  0.67795036  0.50641278  1  0.108081  0  0.121348  0.090936  0  0.988624  0
H  H31  1  0.05477208  0.17795369  0.99359483  1  0.107975  0  0.12136  0.090979  0  0.98864  0
H  H32  1  0.92947646  0.41191511  0.44638224  1  0.174952  0  0.112872  0.137814  0  1.037198  0
H  H33  1  0.07053882  0.91191371  0.05361849  1  0.174888  0  0.112932  0.137861  0  1.037203  0
H  H34  1  0.07054708  0.58808881  0.55362789  1  0.174735  0  0.112875  0.13776  0  1.03729  0
H  H35  1  0.92944523  0.08809154  0.94637799  1  0.174606  0  0.112928  0.137838  0  1.037239  0
H  H36  1  0.15614934  0.51324346  0.59073189  1  0.154087  0  0.10933  0.130235  0  1.054668  0
H  H37  1  0.84383884  0.01324860  0.90927483  1  0.154186  0  0.10935  0.130254  0  1.054657  0
H  H38  1  0.84387036  0.48675601  0.40928345  1  0.153908  0  0.109411  0.130268  0  1.054758  0
H  H39  1  0.15612901  0.98675577  0.09071988  1  0.153807  0  0.109413  0.130322  0  1.054718  0
H  H40  1  0.27411527  0.41808571  0.63096001  1  0.098905  0  0.120189  0.09376  0  0.99799  0
H  H41  1  0.72587845  0.91809270  0.86904039  1  0.098909  0  0.120205  0.093764  0  0.998002  0
H  H42  1  0.72588551  0.58190886  0.36905223  1  0.099071  0  0.120187  0.093814  0  0.99809  0
H  H43  1  0.27411093  0.08190810  0.13095504  1  0.09908  0  0.120157  0.093732  0  0.99816  0
H  H44  1  0.89958903  0.08304321  0.69737162  1  0.076136  0  0.100812  0.102953  0  1.007531  0
H  H45  1  0.10042493  0.58304256  0.80264328  1  0.076014  0  0.100834  0.102902  0  1.007633  0
H  H46  1  0.10041539  0.91695848  0.30263048  1  0.076167  0  0.100815  0.102952  0  1.007596  0
H  H47  1  0.89959041  0.41695468  0.19736330  1  0.075964  0  0.100775  0.102851  0  1.007583  0
H  H48  1  0.66226142  0.04287942  0.62571281  1  0.039174  0  0.10099  0.097251  0  0.991649  0
H  H49  1  0.33773893  0.54287786  0.87430173  1  0.039219  0  0.101027  0.097323  0  0.991706  0
H  H50  1  0.33773765  0.95712406  0.37428993  1  0.039178  0  0.101009  0.097265  0  0.99156  0
H  H51  1  0.66227495  0.45711493  0.12570192  1  0.039273  0  0.101029  0.097327  0  0.99158  0
H  H52  1  0.37676990  0.00319986  0.65413642  1  0.050714  0  0.099602  0.093604  0  1.000684  0
H  H53  1  0.62323292  0.50320006  0.84587626  1  0.050405  0  0.09959  0.093522  0  1.000825  0
H  H54  1  0.62323580  0.99680005  0.34586408  1  0.050616  0  0.099632  0.093653  0  1.000705  0
H  H55  1  0.37677003  0.49678739  0.15412291  1  0.050491  0  0.099641  0.093554  0  1.000746  0
H  H56  1  0.32873177  0.00311576  0.75330321  1  0.051155  0  0.095185  0.093196  0  1.03824  0
H  H57  1  0.67128299  0.50311993  0.74670577  1  0.051226  0  0.095194  0.0932  0  1.038169  0
H  H58  1  0.67126981  0.99688282  0.24669510  1  0.051196  0  0.095205  0.093229  0  1.038181  0
H  H59  1  0.32871316  0.49687108  0.25329112  1  0.051442  0  0.09519  0.093151  0  1.038269  0
H  H60  1  0.56923500  0.04324084  0.82440078  1  0.074922  0  0.095381  0.095204  0  1.03584  0
H  H61  1  0.43076790  0.54324234  0.67560974  1  0.074971  0  0.095371  0.095171  0  1.03573  0
H  H62  1  0.43076122  0.95675551  0.17559775  1  0.074892  0  0.095329  0.095144  0  1.035868  0
H  H63  1  0.56922705  0.45675001  0.32439081  1  0.074902  0  0.09532  0.095133  0  1.03579  0
H  H64  1  0.41450071  0.17047456  0.95467313  1  0.064306  0  0.120879  0.082251  0  0.989289  0
H  H65  1  0.58548936  0.67048723  0.54533407  1  0.064106  0  0.120782  0.082146  0  0.989276  0
H  H66  1  0.58551028  0.82951601  0.04532550  1  0.064254  0  0.120832  0.082192  0  0.989298  0
H  H67  1  0.41449518  0.32952559  0.45467516  1  0.064299  0  0.120851  0.082219  0  0.989365  0
H  H68  1  0.55697822  0.10162785  0.02533861  1  0.158263  0  0.11236  0.139143  0  1.049967  0
H  H69  1  0.44298007  0.60163858  0.47467041  1  0.155923  0  0.112352  0.139127  0  1.049761  0
H  H70  1  0.44299807  0.89836316  0.97466583  1  0.155874  0  0.112361  0.139139  0  1.049638  0
H  H71  1  0.55697361  0.39837379  0.52533983  1  0.158254  0  0.112367  0.139115  0  1.049921  0
H  H72  1  0.34662495  0.95619281  0.91827156  1  0.153033  0  0.108961  0.125171  0  1.054812  0
H  H73  1  0.65335673  0.45620123  0.58172794  1  0.15303  0  0.108851  0.125068  0  1.0546  0
H  H74  1  0.65337261  0.04379553  0.08172703  1  0.153125  0  0.108837  0.124971  0  1.054834  0
H  H75  1  0.34661534  0.54380758  0.41827142  1  0.153088  0  0.108972  0.125175  0  1.054832  0
H  H76  1  0.21337543  0.03268726  0.85235492  1  0.115416  0  0.120039  0.090919  0  1.004045  0
H  H77  1  0.78662548  0.53269170  0.64764910  1  0.115404  0  0.120034  0.090835  0  1.004006  0
H  H78  1  0.78662755  0.96730020  0.14764467  1  0.115515  0  0.119999  0.090838  0  1.004183  0
H  H79  1  0.21338965  0.46731177  0.35235212  1  0.115561  0  0.120005  0.090851  0  1.004204  0
H  H80  1  0.93508342  0.23130785  0.57762980  1  0.10336  0  0.123809  0.09221  0  0.966995  0
H  H81  1  0.06490455  0.73131899  0.92236832  1  0.103485  0  0.123768  0.092198  0  0.967003  0
H  H82  1  0.06489945  0.76869830  0.42237116  1  0.103272  0  0.123832  0.092195  0  0.966877  0
H  H83  1  0.93508501  0.26868004  0.07763163  1  0.103475  0  0.123786  0.09221  0  0.967004  0
H  H84  1  0.67999964  0.20136406  0.62726395  1  0.1315  0  0.110109  0.122022  0  1.025951  0
H  H85  1  0.31998727  0.70137713  0.87273576  1  0.130724  0  0.110106  0.122009  0  1.026104  0
H  H86  1  0.31998461  0.79864209  0.37273788  1  0.132661  0  0.110126  0.121957  0  1.025813  0
H  H87  1  0.68000911  0.29862011  0.12726689  1  0.130843  0  0.110084  0.121951  0  1.026138  0
H  H88  1  0.98620787  0.26747485  0.77772796  1  0.09821  0  0.10773  0.114538  0  1.042647  0
H  H89  1  0.01377045  0.76746748  0.72226362  1  0.097971  0  0.10781  0.114723  0  1.042521  0
H  H90  1  0.01380192  0.73252506  0.22227433  1  0.098237  0  0.107715  0.114531  0  1.042518  0
H  H91  1  0.98622855  0.23252887  0.27773747  1  0.09792  0  0.107784  0.114708  0  1.042501  0
H  H92  1  0.22075709  0.29927630  0.71996758  1  0.143544  0  0.11967  0.097713  0  1.00194  0
H  H93  1  0.77922786  0.79927155  0.78002545  1  0.143384  0  0.119608  0.097556  0  1.001868  0
H  H94  1  0.77925264  0.70072183  0.28003306  1  0.143616  0  0.119631  0.097674  0  1.001928  0
H  H95  1  0.22076706  0.20072525  0.21997427  1  0.143364  0  0.119642  0.097574  0  1.001904  0
H  H96  1  0.81219984  0.23190563  0.82207202  1  0.178829  0  0.10891  0.143216  0  1.035152  0
H  H97  1  0.18779489  0.73190597  0.67792674  1  0.179074  0  0.108911  0.14322  0  1.035109  0
H  H98  1  0.18778712  0.76809873  0.17793031  1  0.179196  0  0.108912  0.143217  0  1.035172  0
H  H99  1  0.81220550  0.26809661  0.32207564  1  0.179096  0  0.108948  0.143281  0  1.035057  0
H  H100  1  0.55819191  0.20536661  0.87159467  1  0.053674  0  0.118016  0.082876  0  0.989416  0
H  H101  1  0.44181136  0.70536621  0.62840760  1  0.053688  0  0.118044  0.08287  0  0.989525  0
H  H102  1  0.44180316  0.79463731  0.12840917  1  0.053826  0  0.118036  0.082822  0  0.989567  0
H  H103  1  0.55819046  0.29463370  0.37159688  1  0.053582  0  0.118043  0.082844  0  0.989524  0
H  H104  1  0.23834036  0.15726763  0.72755786  1  0.13218  0  0.120617  0.097019  0  0.992189  0
H  H105  1  0.76165597  0.65726247  0.77245014  1  0.131918  0  0.120662  0.097083  0  0.992022  0
H  H106  1  0.76166689  0.84273807  0.27244804  1  0.132052  0  0.120656  0.097034  0  0.992109  0
H  H107  1  0.23834853  0.34273611  0.22755402  1  0.131989  0  0.120638  0.097062  0  0.992236  0
H  H108  1  0.47371416  0.18669961  0.66925391  1  0.078298  0  0.111951  0.12701  0  1.012686  0
H  H109  1  0.52626956  0.68669826  0.83074711  1  0.078222  0  0.111954  0.127021  0  1.012773  0
H  H110  1  0.52628225  0.81330386  0.33074956  1  0.078296  0  0.111928  0.127009  0  1.012666  0
H  H111  1  0.47372957  0.31329943  0.16925727  1  0.078128  0  0.111923  0.127007  0  1.012791  0
H  H112  1  0.46750028  0.23891592  0.54349565  1  0.548343  0  0.249687  0.335688  0  0.991045  0
H  H113  1  0.53250547  0.73892155  0.95650339  1  0.548283  0  0.249683  0.33562  0  0.991124  0
H  H114  1  0.53249187  0.76107999  0.45650193  1  0.548177  0  0.249683  0.335697  0  0.991027  0
H  H115  1  0.46749749  0.26108148  0.04349579  1  0.548274  0  0.249653  0.335595  0  0.991153  0
H  H116  1  0.14599041  0.26155222  0.88852364  1  0.557949  0  0.256244  0.335501  0  0.988131  0
H  H117  1  0.85400959  0.76155175  0.61147820  1  0.557905  0  0.256269  0.335574  0  0.988027  0
H  H118  1  0.85401535  0.73844769  0.11147851  1  0.55806  0  0.256309  0.335603  0  0.987994  0
H  H119  1  0.14600033  0.23845083  0.38852737  1  0.557866  0  0.256258  0.335449  0  0.988188  0
C  C120  1  0.59034921  0.35686676  0.65277647  1  1.550672  0  0.197088  0.559578  0  4.237047  0
C  C121  1  0.40965676  0.85686996  0.84721816  1  1.551161  0  0.197204  0.559673  0  4.236619  0
C  C122  1  0.40965125  0.64312692  0.34722755  1  1.550928  0  0.197077  0.559209  0  4.236847  0
C  C123  1  0.59035758  0.14313351  0.15276292  1  1.551349  0  0.197065  0.55932  0  4.237116  0
C  C124  1  0.71986144  0.38057902  0.69953909  1  -0.00937  0  -0.024784  -0.04703  0  3.988042  0
C  C125  1  0.28012928  0.88058056  0.80045513  1  -0.009404  0  -0.024771  -0.046803  0  3.987916  0
C  C126  1  0.28012673  0.61941956  0.30045999  1  -0.009166  0  -0.024879  -0.046858  0  3.987644  0
C  C127  1  0.71989714  0.11942469  0.19952554  1  -0.011456  0  -0.02518  -0.047527  0  3.988274  0
C  C128  1  0.87692733  0.40953201  0.68815479  1  -0.084439  0  -0.091179  -0.103345  0  3.988886  0
C  C129  1  0.12307116  0.90953132  0.81183849  1  -0.083767  0  -0.091159  -0.103332  0  3.989121  0
C  C130  1  0.12306480  0.59046612  0.31184238  1  -0.084165  0  -0.09111  -0.103444  0  3.989094  0
C  C131  1  0.87696325  0.09047794  0.18814039  1  -0.083117  0  -0.09089  -0.102978  0  3.988704  0
C  C132  1  0.00230476  0.42956083  0.73119001  1  -0.093386  0  -0.095177  -0.089855  0  4.011737  0
C  C133  1  0.99768912  0.92955860  0.76880367  1  -0.09239  0  -0.095244  -0.090091  0  4.012024  0
C  C134  1  0.99767665  0.57044264  0.26880802  1  -0.093853  0  -0.095143  -0.089782  0  4.0116  0
C  C135  1  0.00235860  0.07045200  0.23117197  1  -0.095805  0  -0.095212  -0.090065  0  4.011659  0
C  C136  1  0.97181254  0.42034217  0.78611233  1  -0.017165  0  -0.088495  -0.076933  0  3.999556  0
C  C137  1  0.02818772  0.92033944  0.71388128  1  -0.017113  0  -0.088393  -0.076816  0  3.999784  0
C  C138  1  0.02817827  0.57966220  0.21388520  1  -0.0152  0  -0.08851  -0.076942  0  3.999663  0
C  C139  1  0.97185323  0.07967382  0.28609290  1  -0.013626  0  -0.088725  -0.077165  0  3.999843  0
C  C140  1  0.81534452  0.39146038  0.79774106  1  -0.061322  0  -0.091194  -0.089618  0  4.025152  0
C  C141  1  0.18465331  0.89146033  0.70225243  1  -0.061047  0  -0.091066  -0.089323  0  4.024905  0
C  C142  1  0.18465439  0.60853819  0.20225757  1  -0.06355  0  -0.091115  -0.089514  0  4.025047  0
C  C143  1  0.81538388  0.10854670  0.29772860  1  -0.064011  0  -0.090971  -0.089183  0  4.024837  0
C  C144  1  0.68913136  0.37208529  0.75461498  1  -0.049005  0  -0.084547  -0.090664  0  3.981094  0
C  C145  1  0.31086442  0.87208471  0.74537911  1  -0.049109  0  -0.084605  -0.090886  0  3.981244  0
C  C146  1  0.31086753  0.62791284  0.24538323  1  -0.049018  0  -0.084507  -0.090708  0  3.980955  0
C  C147  1  0.68915395  0.12791520  0.25460170  1  -0.049416  0  -0.084201  -0.090194  0  3.980873  0
C  C148  1  0.07257512  0.36523659  0.51415606  1  0.48638  0  0.052985  0.097845  0  3.93893  0
C  C149  1  0.92743661  0.86523691  0.98584030  1  0.485735  0  0.052903  0.097717  0  3.939079  0
C  C150  1  0.92742827  0.63476244  0.48585422  1  0.485605  0  0.052853  0.097986  0  3.938825  0
C  C151  1  0.07255408  0.13476523  0.01415435  1  0.486137  0  0.05291  0.097974  0  3.939133  0
C  C152  1  0.00153434  0.41642431  0.48783867  1  -0.097836  0  -0.075658  -0.160197  0  3.885599  0
C  C153  1  0.99846506  0.91642381  0.01216393  1  -0.097719  0  -0.075637  -0.160188  0  3.885629  0
C  C154  1  0.99847725  0.58357516  0.51217517  1  -0.097704  0  -0.075789  -0.160501  0  3.88564  0
C  C155  1  0.00151090  0.08357878  0.98783187  1  -0.09722  0  -0.075749  -0.160406  0  3.885696  0
C  C156  1  0.03267692  0.47199890  0.51375114  1  -0.010265  0  0.013534  0.101312  0  3.956422  0
C  C157  1  0.96731362  0.97199940  0.98625379  1  -0.010205  0  0.013528  0.10149  0  3.956364  0
C  C158  1  0.96734002  0.52800146  0.48626206  1  -0.051977  0  0.01369  0.101641  0  3.956367  0
C  C159  1  0.03263551  0.02800363  0.01374316  1  -0.052636  0  0.013688  0.101571  0  3.956149  0
C  C160  1  0.13027062  0.47235966  0.56687146  1  0.046295  0  -0.07983  -0.171127  0  3.910115  0
C  C161  1  0.86972531  0.97236187  0.93313365  1  0.046159  0  -0.07986  -0.171288  0  3.910302  0
C  C162  1  0.86973967  0.52763891  0.43314357  1  0.047021  0  -0.07978  -0.171187  0  3.910042  0
C  C163  1  0.13024661  0.02763938  0.06686201  1  0.04694  0  -0.079886  -0.171376  0  3.910137  0
C  C164  1  0.19598405  0.41923279  0.59018349  1  0.409132  0  0.046793  0.097755  0  3.937444  0
C  C165  1  0.80401241  0.91923817  0.90981740  1  0.408978  0  0.04675  0.097785  0  3.937694  0
C  C166  1  0.80401142  0.58076401  0.40983062  1  0.409112  0  0.046718  0.097686  0  3.937321  0
C  C167  1  0.19597152  0.08076175  0.09017621  1  0.408919  0  0.046706  0.097757  0  3.93753  0
C  C168  1  0.88552351  0.09123201  0.80807812  1  1.55432  0  0.196553  0.556482  0  4.242917  0
C  C169  1  0.11447043  0.59122780  0.69193229  1  1.554422  0  0.19636  0.556217  0  4.243982  0
C  C170  1  0.11447948  0.90876923  0.19192188  1  1.55407  0  0.196601  0.556624  0  4.242995  0
C  C171  1  0.88553273  0.40876989  0.30807223  1  1.554198  0  0.196373  0.556148  0  4.243706  0
C  C172  1  0.74771870  0.06517465  0.76493734  1  -0.012424  0  -0.024834  -0.049527  0  3.999998  0
C  C173  1  0.25228638  0.56517530  0.73507379  1  -0.012235  0  -0.024816  -0.049304  0  4.000241  0
C  C174  1  0.25228706  0.93482304  0.23506480  1  -0.012625  0  -0.024757  -0.049537  0  4.000024  0
C  C175  1  0.74771946  0.43482017  0.26493041  1  -0.012479  0  -0.024859  -0.04942  0  4.000217  0
C  C176  1  0.77440205  0.06502160  0.70895272  1  0.000317  0  -0.086836  -0.095564  0  3.987121  0
C  C177  1  0.22560722  0.56501725  0.79106266  1  0.000516  0  -0.086872  -0.095487  0  3.987218  0
C  C178  1  0.22559704  0.93498099  0.29105085  1  0.000436  0  -0.086841  -0.095536  0  3.987048  0
C  C179  1  0.77440543  0.43497599  0.20894382  1  0.000353  0  -0.086698  -0.095279  0  3.987079  0
C  C180  1  0.64148023  0.04263424  0.66927574  1  -0.078406  0  -0.095308  -0.094533  0  4.03477  0
C  C181  1  0.35853354  0.54263435  0.83073885  1  -0.071402  0  -0.095369  -0.094805  0  4.03476  0
C  C182  1  0.35852282  0.95736656  0.33072590  1  -0.0784  0  -0.095327  -0.094555  0  4.03464  0
C  C183  1  0.64148573  0.45735934  0.16926539  1  -0.071567  0  -0.095303  -0.094776  0  4.034655  0
C  C184  1  0.48108161  0.02041464  0.68521450  1  -0.004815  0  -0.089484  -0.077436  0  4.007574  0
C  C185  1  0.51893386  0.52042017  0.81479592  1  -0.012626  0  -0.089516  -0.077281  0  4.007407  0
C  C186  1  0.51892674  0.97958350  0.31478527  1  -0.005275  0  -0.089531  -0.077436  0  4.007649  0
C  C187  1  0.48107847  0.47957217  0.18520234  1  -0.012844  0  -0.089661  -0.077377  0  4.00694  0
C  C188  1  0.45394894  0.02033492  0.74100941  1  -0.058938  0  -0.095117  -0.086465  0  4.013913  0
C  C189  1  0.54605979  0.52033655  0.75900037  1  -0.059047  0  -0.09522  -0.086543  0  4.013359  0
C  C190  1  0.54605534  0.97966544  0.25898898  1  -0.058523  0  -0.095143  -0.086633  0  4.014031  0
C  C191  1  0.45394042  0.47965580  0.24099707  1  -0.058536  0  -0.095168  -0.086451  0  4.013213  0
C  C192  1  0.58740803  0.04237601  0.78068401  1  -0.08688  0  -0.090716  -0.098951  0  3.975949  0
C  C193  1  0.41259615  0.54237764  0.71932574  1  -0.086353  0  -0.090523  -0.098836  0  3.975496  0
C  C194  1  0.41259227  0.95762346  0.21931589  1  -0.086738  0  -0.090667  -0.098808  0  3.975986  0
C  C195  1  0.58740285  0.45761694  0.28067535  1  -0.08628  0  -0.090537  -0.098852  0  3.975581  0
C  C196  1  0.40558568  0.12247092  0.94788378  1  0.49619  0  0.050493  0.091214  0  3.966352  0
C  C197  1  0.59438903  0.62248041  0.55212024  1  0.495165  0  0.050532  0.091239  0  3.966403  0
C  C198  1  0.59440253  0.87751920  0.05211613  1  0.495275  0  0.050519  0.091249  0  3.9664  0
C  C199  1  0.40559136  0.37752930  0.44788597  1  0.495935  0  0.050524  0.091167  0  3.9665  0
C  C200  1  0.48551993  0.08322072  0.98746733  1  -0.055853  0  -0.076932  -0.16288  0  3.896854  0
C  C201  1  0.51444811  0.58323134  0.51254109  1  -0.052929  0  -0.076893  -0.162942  0  3.897043  0
C  C202  1  0.51445781  0.91677118  0.01253962  1  -0.053197  0  -0.076928  -0.162986  0  3.896819  0
C  C203  1  0.48551489  0.41677925  0.48746700  1  -0.055669  0  -0.076906  -0.162883  0  3.896881  0
C  C204  1  0.46314158  0.02174130  0.97881781  1  -0.002575  0  0.015061  0.105422  0  3.951405  0
C  C205  1  0.53683073  0.52175101  0.52118703  1  0.038662  0  0.015119  0.105323  0  3.951606  0
C  C206  1  0.53686284  0.97824926  0.02118429  1  0.038574  0  0.015166  0.105589  0  3.951435  0
C  C207  1  0.46311609  0.47825825  0.47881969  1  -0.002545  0  0.015007  0.105631  0  3.951058  0
C  C208  1  0.36625602  0.00317903  0.92862859  1  -0.072276  0  -0.077739  -0.168125  0  3.904688  0
C  C209  1  0.63372096  0.50318929  0.57137583  1  -0.071521  0  -0.077545  -0.167842  0  3.904761  0
C  C210  1  0.63373237  0.99681020  0.07137584  1  -0.071615  0  -0.077629  -0.167955  0  3.904726  0
C  C211  1  0.36625258  0.49682086  0.42862687  1  -0.07263  0  -0.077629  -0.168109  0  3.904464  0
C  C212  1  0.29196193  0.04552645  0.89117598  1  0.460712  0  0.051935  0.102821  0  3.936585  0
C  C213  1  0.70802471  0.54553425  0.60882903  1  0.460705  0  0.051893  0.102843  0  3.936477  0
C  C214  1  0.70803712  0.95446100  0.10882635  1  0.460761  0  0.051963  0.102888  0  3.936659  0
C  C215  1  0.29195954  0.45447189  0.39117280  1  0.460807  0  0.051852  0.102821  0  3.936564  0
C  C216  1  0.93972741  0.23881314  0.62205149  1  0.470614  0  0.053085  0.100326  0  3.938988  0
C  C217  1  0.06027424  0.73882494  0.87794576  1  0.47045  0  0.053198  0.100335  0  3.939257  0
C  C218  1  0.06026890  0.76118900  0.37794951  1  0.471225  0  0.053069  0.100337  0  3.93907  0
C  C219  1  0.93973416  0.26117586  0.12205524  1  0.470595  0  0.053138  0.100217  0  3.939156  0
C  C220  1  0.79896482  0.22110558  0.65047787  1  -0.033412  0  -0.073695  -0.157849  0  3.914012  0
C  C221  1  0.20102541  0.72111223  0.84951923  1  -0.032205  0  -0.073795  -0.157946  0  3.913975  0
C  C222  1  0.20102207  0.77889790  0.34952282  1  -0.034803  0  -0.073675  -0.157606  0  3.913849  0
C  C223  1  0.79897758  0.27888368  0.15048077  1  -0.032274  0  -0.073747  -0.15779  0  3.913974  0
C  C224  1  0.81123381  0.23065320  0.70781575  1  -0.048858  0  0.020547  0.111054  0  3.941226  0
C  C225  1  0.18875945  0.73065890  0.79218092  1  -0.048964  0  0.020569  0.111115  0  3.940906  0
C  C226  1  0.18876656  0.76934938  0.29218580  1  -0.048386  0  0.02059  0.110991  0  3.941217  0
C  C227  1  0.81123952  0.26934501  0.20781935  1  -0.049114  0  0.020594  0.111071  0  3.940976  0
C  C228  1  0.96690089  0.25879944  0.73338526  1  0.057009  0  -0.073875  -0.156703  0  3.929872  0
C  C229  1  0.03308126  0.75879771  0.76660943  1  0.05688  0  -0.073941  -0.157053  0  3.929932  0
C  C230  1  0.03310493  0.74119824  0.26661853  1  0.056355  0  -0.07391  -0.156896  0  3.929913  0
C  C231  1  0.96691104  0.24120132  0.23339185  1  0.056983  0  -0.073929  -0.157063  0  3.92983  0
C  C232  1  0.09967878  0.27628307  0.70182863  1  0.428629  0  0.046622  0.08682  0  3.952298  0
C  C233  1  0.90030539  0.77628127  0.79816672  1  0.429045  0  0.046838  0.087326  0  3.951875  0
C  C234  1  0.90032974  0.72371239  0.29817566  1  0.428984  0  0.046743  0.087088  0  3.952198  0
C  C235  1  0.09969236  0.22371775  0.20183679  1  0.428976  0  0.046689  0.087189  0  3.951682  0
C  C236  1  0.66507764  0.21316012  0.74003420  1  0.037248  0  0.021048  0.110435  0  3.941912  0
C  C237  1  0.33492857  0.71316477  0.75996683  1  0.036932  0  0.021035  0.110441  0  3.941823  0
C  C238  1  0.33493223  0.78683935  0.25997014  1  0.036881  0  0.021132  0.110614  0  3.941776  0
C  C239  1  0.66507449  0.28683871  0.24003482  1  0.037146  0  0.021046  0.110405  0  3.942042  0
C  C240  1  0.68641097  0.21782848  0.79800860  1  -0.035825  0  -0.075486  -0.158943  0  3.888042  0
C  C241  1  0.31358600  0.71782547  0.70199205  1  -0.036249  0  -0.07547  -0.158892  0  3.888194  0
C  C242  1  0.31358278  0.78217633  0.20199560  1  -0.036064  0  -0.075521  -0.158953  0  3.888212  0
C  C243  1  0.68641569  0.28217444  0.29800913  1  -0.036303  0  -0.075429  -0.158951  0  3.888238  0
C  C244  1  0.54429407  0.20219582  0.82656907  1  0.480807  0  0.047388  0.095139  0  3.959203  0
C  C245  1  0.45569559  0.70219435  0.67343154  1  0.480976  0  0.047323  0.095192  0  3.959314  0
C  C246  1  0.45569156  0.79780899  0.17343363  1  0.48072  0  0.04726  0.095112  0  3.959254  0
C  C247  1  0.54431153  0.29780779  0.32657106  1  0.48113  0  0.047393  0.095367  0  3.959573  0
C  C248  1  0.36661933  0.17547283  0.74597672  1  0.486521  0  0.049111  0.09505  0  3.948334  0
C  C249  1  0.63337874  0.67546781  0.75402411  1  0.486838  0  0.049128  0.095059  0  3.948172  0
C  C250  1  0.63338771  0.82453242  0.25402383  1  0.48661  0  0.049004  0.094961  0  3.948432  0
C  C251  1  0.36661770  0.32453076  0.24598018  1  0.486728  0  0.049157  0.095063  0  3.948436  0
C  C252  1  0.50056705  0.19116158  0.71408407  1  -0.017416  0  -0.072087  -0.153911  0  3.90755  0
C  C253  1  0.49943027  0.69116168  0.78591695  1  -0.017103  0  -0.072087  -0.153961  0  3.907683  0
C  C254  1  0.49943605  0.80884100  0.28591881  1  -0.017269  0  -0.072039  -0.153934  0  3.907484  0
C  C255  1  0.50057017  0.30883645  0.21408666  1  -0.017215  0  -0.0721  -0.153865  0  3.907858  0
N  N256  1  0.17037790  0.36631838  0.56434517  1  -1.236095  0  -0.327373  -0.239449  0  3.594377  0
N  N257  1  0.82963521  0.86632125  0.93565122  1  -1.235437  0  -0.327249  -0.239353  0  3.594628  0
N  N258  1  0.82963625  0.63368109  0.43566547  1  -1.236066  0  -0.327272  -0.239444  0  3.594321  0
N  N259  1  0.17035010  0.13368177  0.06434325  1  -1.235921  0  -0.327311  -0.239516  0  3.594601  0
N  N260  1  0.30882479  0.10439018  0.90070971  1  -1.235591  0  -0.329236  -0.237335  0  3.606606  0
N  N261  1  0.69116794  0.60439850  0.59929146  1  -1.235713  0  -0.32928  -0.237273  0  3.606255  0
N  N262  1  0.69117813  0.89559860  0.09928864  1  -1.235885  0  -0.329255  -0.237241  0  3.60639  0
N  N263  1  0.30882707  0.39560853  0.40071074  1  -1.23547  0  -0.329156  -0.237192  0  3.606352  0
N  N264  1  0.08812246  0.26598015  0.64700918  1  -1.257528  0  -0.328596  -0.221414  0  3.55655  0
N  N265  1  0.91187614  0.76598601  0.85298721  1  -1.257774  0  -0.328758  -0.221579  0  3.556871  0
N  N266  1  0.91188203  0.73401887  0.35299498  1  -1.258102  0  -0.328711  -0.221651  0  3.556877  0
N  N267  1  0.08812555  0.23401346  0.14701398  1  -1.257686  0  -0.328685  -0.221453  0  3.556539  0
N  N268  1  0.38587348  0.18195041  0.80139062  1  -1.279765  0  -0.333091  -0.247966  0  3.601855  0
N  N269  1  0.61412222  0.68195105  0.69861211  1  -1.279526  0  -0.333126  -0.248113  0  3.601825  0
N  N270  1  0.61412291  0.81805039  0.19861244  1  -1.279599  0  -0.333009  -0.247916  0  3.601675  0
N  N271  1  0.38588369  0.31804930  0.30139374  1  -1.279578  0  -0.333213  -0.24827  0  3.602105  0
O  O272  1  0.44788670  0.33111471  0.66695107  1  -1.181876  0  -0.33504  -0.564456  0  2.350716  0
O  O273  1  0.55211555  0.83111744  0.83304172  1  -1.182245  0  -0.335038  -0.564432  0  2.350734  0
O  O274  1  0.55211377  0.66887987  0.33305336  1  -1.181891  0  -0.335047  -0.564304  0  2.35059  0
O  O275  1  0.44790719  0.16888514  0.16694786  1  -1.18164  0  -0.334971  -0.564285  0  2.350549  0
O  O276  1  0.62381754  0.36234244  0.60372139  1  -1.194536  0  -0.332939  -0.574263  0  2.178854  0
O  O277  1  0.37619807  0.86234473  0.89627391  1  -1.1946  0  -0.333119  -0.574482  0  2.178576  0
O  O278  1  0.37618023  0.63764501  0.39628254  1  -1.194719  0  -0.332883  -0.574034  0  2.178871  0
O  O279  1  0.62378255  0.13764940  0.10370357  1  -1.194424  0  -0.332964  -0.574161  0  2.179232  0
O  O280  1  0.37714015  0.22628406  0.56647451  1  -1.211738  0  -0.653  -0.86867  0  1.872238  0
O  O281  1  0.62285426  0.72628691  0.93352143  1  -1.211568  0  -0.652989  -0.868577  0  1.872173  0
O  O282  1  0.62285336  0.77371451  0.43352352  1  -1.211553  0  -0.652959  -0.868632  0  1.872188  0
O  O283  1  0.37715276  0.27371790  0.06647871  1  -1.21163  0  -0.65299  -0.868583  0  1.872161  0
O  O284  1  0.02247141  0.11654073  0.78965023  1  -1.177046  0  -0.337668  -0.55717  0  2.33062  0
O  O285  1  0.97753154  0.61653663  0.71036016  1  -1.177271  0  -0.337598  -0.557088  0  2.330797  0
O  O286  1  0.97753421  0.88345874  0.21034821  1  -1.177052  0  -0.337774  -0.557324  0  2.330792  0
O  O287  1  0.02247841  0.38346194  0.28964624  1  -1.177238  0  -0.337641  -0.557105  0  2.330745  0
O  O288  1  0.86313910  0.08852022  0.85822887  1  -1.191027  0  -0.324659  -0.55832  0  2.178819  0
O  O289  1  0.13684523  0.58851243  0.64177879  1  -1.1908  0  -0.324543  -0.558231  0  2.179199  0
O  O290  1  0.13684505  0.91148458  0.14177049  1  -1.19083  0  -0.324659  -0.558361  0  2.178827  0
O  O291  1  0.86314711  0.41148837  0.35822372  1  -1.190531  0  -0.324545  -0.558136  0  2.179075  0
O  O292  1  0.06240769  0.22977251  0.87649312  1  -1.224334  0  -0.630927  -0.855233  0  1.927864  0
O  O293  1  0.93759656  0.72977401  0.62351050  1  -1.224258  0  -0.630946  -0.855336  0  1.927764  0
O  O294  1  0.93759295  0.77022607  0.12351542  1  -1.224462  0  -0.631014  -0.855374  0  1.927906  0
O  O295  1  0.06241878  0.27023035  0.37649607  1  -1.224207  0  -0.630948  -0.855183  0  1.928006  0
