# generated using pymatgen
data_MgH8C13NO5
_symmetry_space_group_name_H-M   'P 1'
_cell_length_a   12.52254199
_cell_length_b   12.52252458
_cell_length_c   13.42452820
_cell_angle_alpha   63.16835585
_cell_angle_beta   63.16824020
_cell_angle_gamma   88.10420029
_symmetry_Int_Tables_number   1
_chemical_formula_structural   MgH8C13NO5
_chemical_formula_sum   'Mg4 H32 C52 N4 O20'
_cell_volume   1637.30659608
_cell_formula_units_Z   4
loop_
 _symmetry_equiv_pos_site_id
 _symmetry_equiv_pos_as_xyz
  1  'x, y, z'
loop_
 _atom_site_type_symbol
 _atom_site_label
 _atom_site_symmetry_multiplicity
 _atom_site_fract_x
 _atom_site_fract_y
 _atom_site_fract_z
 _atom_site_occupancy
 _atom_site_hle17_bader_spin_density
 _atom_site_hle17_ddec_charge
 _atom_site_hle17_ddec_spin_density
 _atom_site_hle17_ddec_sum_bond_order
 _atom_site_hle17_magmom
 _atom_site_hse06_10hf_bader_spin_density
 _atom_site_hse06_10hf_ddec_charge
 _atom_site_hse06_10hf_ddec_spin_density
 _atom_site_hse06_10hf_ddec_sum_bond_order
 _atom_site_hse06_10hf_magmom
 _atom_site_hse06_bader_spin_density
 _atom_site_hse06_ddec_charge
 _atom_site_hse06_ddec_spin_density
 _atom_site_hse06_ddec_sum_bond_order
 _atom_site_hse06_magmom
 _atom_site_pbe_bader_spin_density
 _atom_site_pbe_cm5_charge
 _atom_site_pbe_ddec_charge
 _atom_site_pbe_ddec_spin_density
 _atom_site_pbe_ddec_sum_bond_order
 _atom_site_pbe_magmom
Mg  Mg0  1  0.30778730  0.69221311  0.74999976  1  0  1.510333  0  1.157237  0  0  1.406668  0  1.40951  0  0  1.429812  0  1.374079  0  0  0.830014  1.390684  0  1.433435  0
Mg  Mg1  1  0.69221391  0.30778711  0.24999883  1  0  1.510343  0  1.157221  0  0  1.406665  0  1.409503  0  0  1.429798  0  1.374104  0  0  0.830009  1.390682  0  1.433425  0
Mg  Mg2  1  0.49999993  0.99999971  0.49999990  1  0  1.487235  0  1.123837  0  0  1.376914  0  1.381881  0  0  1.403291  0  1.342177  0  0  0.79886  1.358523  0  1.409499  0
Mg  Mg3  1  0.00000059  0.50000049  0.99999906  1  0  1.487223  0  1.123838  0  0  1.376862  0  1.381969  0  0  1.403234  0  1.342276  0  0  0.798871  1.358512  0  1.409512  0
H  H4  1  0.39763253  0.65408689  0.00800397  1  0  0.096334  0  0.944184  0  0  0.106256  0  1.003043  0  0  0.109891  0  1.000873  0  0  0.102609  0.103634  0  1.004683  0
H  H5  1  0.34591499  0.60236842  0.49199632  1  0  0.096398  0  0.944153  0  0  0.106335  0  1.002986  0  0  0.109972  0  1.000813  0  0  0.102647  0.103712  0  1.004627  0
H  H6  1  0.60236819  0.34591518  0.99199778  1  0  0.09642  0  0.944184  0  0  0.106348  0  1.003023  0  0  0.109982  0  1.000853  0  0  0.102649  0.103726  0  1.004663  0
H  H7  1  0.65408642  0.39763272  0.50800254  1  0  0.096444  0  0.944144  0  0  0.10637  0  1.002987  0  0  0.110006  0  1.000814  0  0  0.102649  0.103747  0  1.004628  0
H  H8  1  0.51889385  0.54104378  0.11362830  1  0  0.110642  0  0.936248  0  0  0.120318  0  0.993559  0  0  0.124301  0  0.99112  0  0  0.10908  0.117426  0  0.995411  0
H  H9  1  0.45895928  0.48110799  0.38637084  1  0  0.110609  0  0.936334  0  0  0.12031  0  0.993613  0  0  0.124287  0  0.991185  0  0  0.10908  0.117424  0  0.995457  0
H  H10  1  0.48110814  0.45896011  0.88637064  1  0  0.110596  0  0.936333  0  0  0.120294  0  0.993618  0  0  0.124273  0  0.991187  0  0  0.109078  0.117409  0  0.995462  0
H  H11  1  0.54104213  0.51889315  0.61362802  1  0  0.110569  0  0.936337  0  0  0.120265  0  0.993623  0  0  0.124243  0  0.991195  0  0  0.109071  0.11738  0  0.995468  0
H  H12  1  0.85247755  0.74460174  0.75963159  1  0  0.087724  0  0.965339  0  0  0.094896  0  1.032524  0  0  0.098483  0  1.030432  0  0  0.091634  0.092406  0  1.033911  0
H  H13  1  0.25539847  0.14752276  0.74036751  1  0  0.08768  0  0.965317  0  0  0.094854  0  1.032505  0  0  0.098441  0  1.030412  0  0  0.091605  0.092364  0  1.033892  0
H  H14  1  0.14752386  0.25539940  0.24036727  1  0  0.087714  0  0.965282  0  0  0.09487  0  1.032489  0  0  0.098457  0  1.030397  0  0  0.091604  0.092373  0  1.033883  0
H  H15  1  0.74460363  0.85247746  0.25963070  1  0  0.087691  0  0.965316  0  0  0.094852  0  1.032518  0  0  0.098439  0  1.030425  0  0  0.091609  0.092368  0  1.033898  0
H  H16  1  0.73043327  0.86230668  0.65638243  1  0  0.073435  0  1.020003  0  0  0.079281  0  1.092805  0  0  0.081108  0  1.093866  0  0  0.086233  0.078117  0  1.091958  0
H  H17  1  0.13769402  0.26956766  0.84361572  1  0  0.073413  0  1.020049  0  0  0.079286  0  1.092819  0  0  0.081114  0  1.093879  0  0  0.086237  0.078123  0  1.091974  0
H  H18  1  0.26956724  0.13769445  0.34361682  1  0  0.073404  0  1.020055  0  0  0.079277  0  1.092829  0  0  0.081105  0  1.093888  0  0  0.086227  0.078112  0  1.091985  0
H  H19  1  0.86230718  0.73043255  0.15638213  1  0  0.073416  0  1.020019  0  0  0.079259  0  1.092827  0  0  0.081086  0  1.093888  0  0  0.086226  0.078095  0  1.09198  0
H  H20  1  0.25530925  0.79337940  0.50757028  1  0  0.144124  0  0.915105  0  0  0.152713  0  0.968159  0  0  0.156776  0  0.963886  0  0  0.150442  0.149637  0  0.971403  0
H  H21  1  0.20661894  0.74468931  0.99243109  1  0  0.144114  0  0.915087  0  0  0.152715  0  0.968132  0  0  0.156773  0  0.963865  0  0  0.150452  0.149639  0  0.971377  0
H  H22  1  0.74469088  0.20661991  0.49243065  1  0  0.144116  0  0.915122  0  0  0.152711  0  0.968174  0  0  0.156774  0  0.9639  0  0  0.150444  0.149635  0  0.971417  0
H  H23  1  0.79337741  0.25530907  0.00757109  1  0  0.144094  0  0.915088  0  0  0.152694  0  0.968151  0  0  0.156756  0  0.963877  0  0  0.150431  0.149615  0  0.971396  0
H  H24  1  0.09227895  0.85002259  0.44690862  1  0  0.113989  0  0.935407  0  0  0.128108  0  0.983944  0  0  0.131059  0  0.983327  0  0  0.120651  0.125958  0  0.984601  0
H  H25  1  0.14997579  0.90771944  0.05309330  1  0  0.113963  0  0.935451  0  0  0.128087  0  0.98398  0  0  0.131037  0  0.983364  0  0  0.120631  0.125937  0  0.984636  0
H  H26  1  0.90772028  0.14997671  0.55309269  1  0  0.113958  0  0.935402  0  0  0.128081  0  0.983942  0  0  0.131031  0  0.983326  0  0  0.120641  0.12593  0  0.984599  0
H  H27  1  0.85002145  0.09227893  0.94690775  1  0  0.113982  0  0.935381  0  0  0.128134  0  0.983886  0  0  0.131085  0  0.983266  0  0  0.120662  0.125983  0  0.984542  0
H  H28  1  0.04470775  0.10560854  0.59176103  1  0  0.113097  0  0.938867  0  0  0.126949  0  0.988121  0  0  0.129969  0  0.987405  0  0  0.118863  0.12474  0  0.98893  0
H  H29  1  0.89439109  0.95528952  0.90824054  1  0  0.113084  0  0.938858  0  0  0.126934  0  0.98812  0  0  0.129954  0  0.987406  0  0  0.118848  0.124725  0  0.988928  0
H  H30  1  0.95528969  0.89439076  0.40824030  1  0  0.113103  0  0.938861  0  0  0.126956  0  0.988118  0  0  0.129976  0  0.987402  0  0  0.118854  0.124747  0  0.988927  0
H  H31  1  0.10560921  0.04471068  0.09175621  1  0  0.113062  0  0.938903  0  0  0.126944  0  0.988132  0  0  0.129964  0  0.987418  0  0  0.118858  0.124735  0  0.988942  0
H  H32  1  0.21502074  0.04020264  0.63956063  1  0  0.133548  0  0.935722  0  0  0.138839  0  0.998915  0  0  0.142574  0  0.995928  0  0  0.140776  0.136043  0  1.001242  0
H  H33  1  0.95979671  0.78497877  0.86043909  1  0  0.133564  0  0.935716  0  0  0.138847  0  0.998913  0  0  0.142582  0  0.995924  0  0  0.140773  0.136051  0  1.00124  0
H  H34  1  0.78497869  0.95979758  0.36043946  1  0  0.133562  0  0.935713  0  0  0.13885  0  0.998902  0  0  0.142583  0  0.995921  0  0  0.14078  0.136054  0  1.00123  0
H  H35  1  0.04020359  0.21502144  0.13955765  1  0  0.133547  0  0.93566  0  0  0.138838  0  0.99885  0  0  0.142574  0  0.995858  0  0  0.140757  0.136042  0  1.001179  0
C  C36  1  0.55750877  0.76742560  0.82621153  1  0  -0.055932  0  3.732585  0  0  -0.034657  0  3.963836  0  0  -0.040693  0  3.985655  0  0  -0.017166  -0.03075  0  3.949069  0
C  C37  1  0.23257594  0.44249155  0.67378810  1  0  -0.055924  0  3.732613  0  0  -0.034658  0  3.963879  0  0  -0.040693  0  3.985703  0  0  -0.017185  -0.030751  0  3.949114  0
C  C38  1  0.44249175  0.23257555  0.17378919  1  0  -0.055837  0  3.732555  0  0  -0.034576  0  3.963811  0  0  -0.040608  0  3.985629  0  0  -0.017117  -0.030664  0  3.949044  0
C  C39  1  0.76742617  0.55750867  0.32621011  1  0  -0.055929  0  3.732754  0  0  -0.034657  0  3.963998  0  0  -0.040696  0  3.985819  0  0  -0.017152  -0.03075  0  3.949232  0
C  C40  1  0.49745355  0.67681171  0.95547159  1  0  -0.06989  0  3.746751  0  0  -0.093669  0  3.998777  0  0  -0.095052  0  4.01979  0  0  -0.084506  -0.09261  0  3.984462  0
C  C41  1  0.32318991  0.50254681  0.54452945  1  0  -0.069927  0  3.746718  0  0  -0.093714  0  3.998747  0  0  -0.0951  0  4.01976  0  0  -0.08452  -0.092655  0  3.984434  0
C  C42  1  0.50254806  0.32319035  0.04452903  1  0  -0.070029  0  3.746728  0  0  -0.093806  0  3.998756  0  0  -0.095192  0  4.019768  0  0  -0.084537  -0.092749  0  3.984445  0
C  C43  1  0.67681130  0.49745341  0.45546914  1  0  -0.070019  0  3.746831  0  0  -0.093803  0  3.99885  0  0  -0.095185  0  4.019862  0  0  -0.084515  -0.092744  0  3.984538  0
C  C44  1  0.56435850  0.61336216  0.01391793  1  0  -0.070198  0  3.733656  0  0  -0.09252  0  3.982292  0  0  -0.093905  0  4.003411  0  0  -0.082242  -0.091455  0  3.96787  0
C  C45  1  0.38664043  0.43564257  0.48608177  1  0  -0.07024  0  3.733652  0  0  -0.092578  0  3.982316  0  0  -0.093963  0  4.003433  0  0  -0.08227  -0.091518  0  3.96789  0
C  C46  1  0.43564311  0.38663991  0.98608195  1  0  -0.070176  0  3.733611  0  0  -0.092511  0  3.982271  0  0  -0.093897  0  4.003388  0  0  -0.082273  -0.091452  0  3.967848  0
C  C47  1  0.61336239  0.56435675  0.51391802  1  0  -0.070152  0  3.733647  0  0  -0.092483  0  3.982294  0  0  -0.093868  0  4.003413  0  0  -0.082286  -0.091424  0  3.967869  0
C  C48  1  0.69265612  0.63746468  0.94353236  1  0  -0.062336  0  3.742171  0  0  -0.040558  0  3.97244  0  0  -0.047239  0  3.995999  0  0  -0.020159  -0.036114  0  3.956357  0
C  C49  1  0.36253811  0.30734400  0.55646802  1  0  -0.062362  0  3.742092  0  0  -0.040574  0  3.972373  0  0  -0.047251  0  3.995928  0  0  -0.020185  -0.036129  0  3.956291  0
C  C50  1  0.30734459  0.36253738  0.05646716  1  0  -0.062426  0  3.742152  0  0  -0.040647  0  3.972425  0  0  -0.047322  0  3.995983  0  0  -0.020224  -0.036202  0  3.956345  0
C  C51  1  0.63746470  0.69265532  0.44353176  1  0  -0.06242  0  3.74216  0  0  -0.040632  0  3.972424  0  0  -0.047312  0  3.995982  0  0  -0.02019  -0.036189  0  3.956344  0
C  C52  1  0.75293961  0.72864289  0.81444314  1  0  -0.096817  0  3.780552  0  0  -0.116272  0  4.026015  0  0  -0.118522  0  4.048148  0  0  -0.098948  -0.114404  0  4.01055  0
C  C53  1  0.27135791  0.24706104  0.68555715  1  0  -0.096725  0  3.78049  0  0  -0.116175  0  4.025948  0  0  -0.118426  0  4.048081  0  0  -0.098909  -0.114307  0  4.010483  0
C  C54  1  0.24706200  0.27135917  0.18555673  1  0  -0.09674  0  3.780526  0  0  -0.116171  0  4.025979  0  0  -0.118425  0  4.048115  0  0  -0.098895  -0.114297  0  4.010517  0
C  C55  1  0.72864331  0.75293919  0.31444293  1  0  -0.09675  0  3.780542  0  0  -0.116198  0  4.026008  0  0  -0.118448  0  4.048141  0  0  -0.098916  -0.114335  0  4.01054  0
C  C56  1  0.68570676  0.79347495  0.75701637  1  0  -0.085808  0  3.781382  0  0  -0.1063  0  4.026448  0  0  -0.108175  0  4.049573  0  0  -0.099017  -0.104826  0  4.010343  0
C  C57  1  0.20652527  0.31429423  0.74298268  1  0  -0.085844  0  3.781407  0  0  -0.106357  0  4.026467  0  0  -0.108234  0  4.049595  0  0  -0.099044  -0.104884  0  4.010365  0
C  C58  1  0.31429465  0.20652619  0.24298323  1  0  -0.085851  0  3.78145  0  0  -0.106363  0  4.02651  0  0  -0.108238  0  4.049634  0  0  -0.09905  -0.104891  0  4.010403  0
C  C59  1  0.79347594  0.68570599  0.25701666  1  0  -0.085768  0  3.78138  0  0  -0.106257  0  4.02644  0  0  -0.10813  0  4.049567  0  0  -0.099014  -0.104784  0  4.010339  0
C  C60  1  0.48606817  0.82750885  0.75863426  1  0  0.705593  0  3.877241  0  0  0.653846  0  4.175004  0  0  0.68862  0  4.162959  0  0  0.224318  0.630197  0  4.182338  0
C  C61  1  0.17249113  0.51393258  0.74136675  1  0  0.705539  0  3.877271  0  0  0.653789  0  4.175035  0  0  0.688561  0  4.162997  0  0  0.224318  0.630139  0  4.182375  0
C  C62  1  0.51393215  0.17249137  0.24136620  1  0  0.705574  0  3.877281  0  0  0.653832  0  4.17504  0  0  0.688605  0  4.162996  0  0  0.224304  0.630176  0  4.182382  0
C  C63  1  0.82750919  0.48606765  0.25863371  1  0  0.705561  0  3.877187  0  0  0.653806  0  4.174959  0  0  0.688581  0  4.162912  0  0  0.224293  0.630155  0  4.182299  0
C  C64  1  0.76245806  0.56060067  0.00569291  1  0  0.695724  0  3.887396  0  0  0.644453  0  4.184862  0  0  0.678139  0  4.174871  0  0  0.22263  0.621693  0  4.190861  0
C  C65  1  0.43940148  0.23754171  0.49430575  1  0  0.695795  0  3.887318  0  0  0.644476  0  4.184846  0  0  0.678162  0  4.174857  0  0  0.222643  0.621715  0  4.190842  0
C  C66  1  0.23754136  0.43939954  0.99430645  1  0  0.695746  0  3.887386  0  0  0.644454  0  4.184879  0  0  0.678137  0  4.174897  0  0  0.222661  0.621694  0  4.19088  0
C  C67  1  0.56059973  0.76245852  0.50569358  1  0  0.695705  0  3.887316  0  0  0.644411  0  4.184814  0  0  0.678096  0  4.174826  0  0  0.222626  0.62165  0  4.190809  0
C  C68  1  0.20453746  0.86188089  0.52178413  1  0  0.05972  0  3.542028  0  0  0.018079  0  3.801611  0  0  0.028076  0  3.809252  0  0  0.070079  0.011222  0  3.797181  0
C  C69  1  0.13811970  0.79546109  0.97821419  1  0  0.059719  0  3.541947  0  0  0.018041  0  3.80158  0  0  0.028052  0  3.8092  0  0  0.070032  0.011183  0  3.797154  0
C  C70  1  0.79546197  0.13811933  0.47821671  1  0  0.059738  0  3.541971  0  0  0.018079  0  3.801582  0  0  0.028078  0  3.809219  0  0  0.070086  0.011221  0  3.797152  0
C  C71  1  0.86188003  0.20453638  0.02178471  1  0  0.059819  0  3.541893  0  0  0.018123  0  3.801545  0  0  0.028119  0  3.809191  0  0  0.070106  0.011269  0  3.797112  0
C  C72  1  0.11262828  0.89473134  0.49133514  1  0  -0.126391  0  3.708023  0  0  -0.14573  0  3.959319  0  0  -0.151891  0  3.977213  0  0  -0.066233  -0.141915  0  3.947589  0
C  C73  1  0.10526667  0.88737039  0.00866685  1  0  -0.126403  0  3.708028  0  0  -0.145732  0  3.959317  0  0  -0.151897  0  3.977213  0  0  -0.066211  -0.141916  0  3.947586  0
C  C74  1  0.88737056  0.10526613  0.50866711  1  0  -0.126424  0  3.708116  0  0  -0.145767  0  3.959418  0  0  -0.151929  0  3.977312  0  0  -0.066265  -0.141952  0  3.947687  0
C  C75  1  0.89473057  0.11262798  0.99133272  1  0  -0.12648  0  3.70794  0  0  -0.145826  0  3.959266  0  0  -0.151985  0  3.977155  0  0  -0.066285  -0.14201  0  3.947532  0
C  C76  1  0.04885514  0.98208852  0.51627525  1  0  0.078968  0  3.767858  0  0  0.084949  0  4.010474  0  0  0.089463  0  4.03079  0  0  0.009334  0.081926  0  3.996833  0
C  C77  1  0.01790970  0.95114236  0.98372707  1  0  0.078982  0  3.767899  0  0  0.084974  0  4.010507  0  0  0.089489  0  4.030824  0  0  0.009335  0.081952  0  3.996864  0
C  C78  1  0.95114153  0.01790712  0.48372870  1  0  0.079076  0  3.767954  0  0  0.085083  0  4.010539  0  0  0.089598  0  4.030854  0  0  0.009369  0.082059  0  3.996897  0
C  C79  1  0.98208951  0.04885693  0.01627127  1  0  0.079009  0  3.767877  0  0  0.084989  0  4.010514  0  0  0.089503  0  4.030827  0  0  0.009314  0.081966  0  3.996871  0
C  C80  1  0.08593784  0.03485681  0.57174560  1  0  -0.136291  0  3.729216  0  0  -0.154436  0  3.980755  0  0  -0.161012  0  3.999959  0  0  -0.071122  -0.150735  0  3.968534  0
C  C81  1  0.96514182  0.91405982  0.92825610  1  0  -0.136307  0  3.729229  0  0  -0.154466  0  3.980763  0  0  -0.161044  0  3.999971  0  0  -0.07115  -0.150764  0  3.968542  0
C  C82  1  0.91406011  0.96514066  0.42825703  1  0  -0.136374  0  3.729233  0  0  -0.15454  0  3.980773  0  0  -0.161116  0  3.999975  0  0  -0.071156  -0.15084  0  3.968553  0
C  C83  1  0.03485760  0.08594038  0.07174177  1  0  -0.136237  0  3.729256  0  0  -0.154432  0  3.980787  0  0  -0.161008  0  3.99999  0  0  -0.071121  -0.15073  0  3.968567  0
C  C84  1  0.17829547  0.00045849  0.60117041  1  0  0.025714  0  3.578482  0  0  -0.017347  0  3.845931  0  0  -0.009657  0  3.857092  0  0  0.056497  -0.022514  0  3.838989  0
C  C85  1  0.99954145  0.82170235  0.89883051  1  0  0.025682  0  3.578467  0  0  -0.017343  0  3.845863  0  0  -0.009658  0  3.857027  0  0  0.056536  -0.022512  0  3.838924  0
C  C86  1  0.82170395  0.99954172  0.39882968  1  0  0.025705  0  3.578389  0  0  -0.017332  0  3.845808  0  0  -0.009644  0  3.856963  0  0  0.056506  -0.0225  0  3.838865  0
C  C87  1  0.00045867  0.17829694  0.10116819  1  0  0.025684  0  3.578391  0  0  -0.017337  0  3.84579  0  0  -0.009645  0  3.856945  0  0  0.056528  -0.022505  0  3.838849  0
N  N88  1  0.23468848  0.91301108  0.57835775  1  0  0.312386  0  3.669789  0  0  0.355833  0  3.94336  0  0  0.356376  0  3.961221  0  0  -0.100273  0.355107  0  3.931771  0
N  N89  1  0.08698907  0.76530968  0.92164168  1  0  0.312509  0  3.669695  0  0  0.355957  0  3.94325  0  0  0.3565  0  3.961115  0  0  -0.10023  0.355231  0  3.931667  0
N  N90  1  0.76531095  0.08698914  0.42164308  1  0  0.312389  0  3.66963  0  0  0.355834  0  3.943206  0  0  0.356379  0  3.961061  0  0  -0.100294  0.35511  0  3.931615  0
N  N91  1  0.91301105  0.23468961  0.07835702  1  0  0.312362  0  3.669681  0  0  0.355808  0  3.943256  0  0  0.356351  0  3.961106  0  0  -0.100292  0.355082  0  3.931668  0
O  O92  1  0.37277755  0.77717346  0.81681778  1  0  -0.756754  0  2.047385  0  0  -0.704854  0  2.292351  0  0  -0.728552  0  2.279223  0  0  -0.368222  -0.687588  0  2.300546  0
O  O93  1  0.22282637  0.62722348  0.68318325  1  0  -0.756731  0  2.047359  0  0  -0.704831  0  2.292326  0  0  -0.728524  0  2.279196  0  0  -0.368214  -0.687564  0  2.300522  0
O  O94  1  0.62722258  0.22282585  0.18318315  1  0  -0.756733  0  2.047356  0  0  -0.704839  0  2.292319  0  0  -0.728526  0  2.279185  0  0  -0.368202  -0.687571  0  2.300515  0
O  O95  1  0.77717395  0.37277674  0.31681647  1  0  -0.756745  0  2.047333  0  0  -0.704844  0  2.292298  0  0  -0.728535  0  2.279166  0  0  -0.368212  -0.687577  0  2.300494  0
O  O96  1  0.54206809  0.92009663  0.64756982  1  0  -0.707343  0  2.015951  0  0  -0.655356  0  2.254023  0  0  -0.678533  0  2.242519  0  0  -0.349932  -0.638937  0  2.26123  0
O  O97  1  0.07990336  0.45793177  0.85243086  1  0  -0.707293  0  2.015954  0  0  -0.655303  0  2.254027  0  0  -0.678478  0  2.24253  0  0  -0.349914  -0.63889  0  2.261235  0
O  O98  1  0.45793133  0.07990359  0.35243028  1  0  -0.707361  0  2.016  0  0  -0.655373  0  2.254064  0  0  -0.678554  0  2.242567  0  0  -0.349939  -0.638951  0  2.261272  0
O  O99  1  0.92009785  0.54206845  0.14756847  1  0  -0.707304  0  2.015871  0  0  -0.655313  0  2.253951  0  0  -0.678491  0  2.24245  0  0  -0.349923  -0.638901  0  2.261161  0
O  O100  1  0.69942907  0.47601461  0.12040965  1  0  -0.715986  0  2.044828  0  0  -0.663172  0  2.284961  0  0  -0.685566  0  2.272528  0  0  -0.356565  -0.647727  0  2.293153  0
O  O101  1  0.52398809  0.30057152  0.37958841  1  0  -0.716007  0  2.044781  0  0  -0.663198  0  2.28497  0  0  -0.685588  0  2.272532  0  0  -0.356577  -0.647754  0  2.293165  0
O  O102  1  0.30057054  0.52398653  0.87958998  1  0  -0.715948  0  2.044782  0  0  -0.663141  0  2.284941  0  0  -0.685537  0  2.27251  0  0  -0.356565  -0.647698  0  2.293137  0
O  O103  1  0.47601222  0.69942869  0.62040983  1  0  -0.715941  0  2.044771  0  0  -0.663151  0  2.284958  0  0  -0.685542  0  2.27252  0  0  -0.356567  -0.647707  0  2.293152  0
O  O104  1  0.87911471  0.58470169  0.93910175  1  0  -0.725738  0  2.002684  0  0  -0.673103  0  2.239749  0  0  -0.695892  0  2.226539  0  0  -0.357395  -0.657019  0  2.248176  0
O  O105  1  0.41529960  0.12088442  0.56089867  1  0  -0.725715  0  2.002647  0  0  -0.673071  0  2.239736  0  0  -0.695861  0  2.226525  0  0  -0.357364  -0.65698  0  2.248162  0
O  O106  1  0.12088472  0.41529853  0.06089909  1  0  -0.725699  0  2.002685  0  0  -0.673055  0  2.239758  0  0  -0.695845  0  2.22655  0  0  -0.357373  -0.65697  0  2.248184  0
O  O107  1  0.58470091  0.87911672  0.43910058  1  0  -0.725686  0  2.002626  0  0  -0.673049  0  2.239698  0  0  -0.695839  0  2.226487  0  0  -0.357369  -0.656958  0  2.248124  0
O  O108  1  0.31992779  0.87851974  0.61101198  1  0  -0.640311  0  1.890798  0  0  -0.598338  0  2.140576  0  0  -0.616695  0  2.132711  0  0  -0.245787  -0.586121  0  2.14596  0
O  O109  1  0.12148120  0.68007162  0.88898794  1  0  -0.640348  0  1.890754  0  0  -0.598385  0  2.140567  0  0  -0.616729  0  2.132674  0  0  -0.245782  -0.586169  0  2.145946  0
O  O110  1  0.68007055  0.12147956  0.38899045  1  0  -0.640293  0  1.890734  0  0  -0.598315  0  2.140504  0  0  -0.616674  0  2.132647  0  0  -0.24576  -0.586097  0  2.145888  0
O  O111  1  0.87852001  0.31992860  0.11101065  1  0  -0.640284  0  1.890763  0  0  -0.598282  0  2.140491  0  0  -0.616654  0  2.13267  0  0  -0.245758  -0.586076  0  2.145885  0
