# generated using pymatgen
data_Zr6H19C54S10O32F5
_symmetry_space_group_name_H-M   'P 1'
_cell_length_a   16.45740852
_cell_length_b   16.45802015
_cell_length_c   16.52689002
_cell_angle_alpha   61.71716237
_cell_angle_beta   59.85606430
_cell_angle_gamma   60.28692340
_symmetry_Int_Tables_number   1
_chemical_formula_structural   Zr6H19C54S10O32F5
_chemical_formula_sum   'Zr6 H19 C54 S10 O32 F5'
_cell_volume   3207.78477487
_cell_formula_units_Z   1
loop_
 _symmetry_equiv_pos_site_id
 _symmetry_equiv_pos_as_xyz
  1  'x, y, z'
loop_
 _atom_site_type_symbol
 _atom_site_label
 _atom_site_symmetry_multiplicity
 _atom_site_fract_x
 _atom_site_fract_y
 _atom_site_fract_z
 _atom_site_occupancy
 _atom_site_pbe_bader_charge
 _atom_site_pbe_bader_spin_density
 _atom_site_pbe_cm5_charge
 _atom_site_pbe_ddec_charge
 _atom_site_pbe_ddec_spin_density
 _atom_site_pbe_ddec_sum_bond_order
 _atom_site_pbe_magmom
Zr  Zr0  1  0.88793146  0.90296067  0.59733267  1  2.633826  0  1.629139  2.373503  0  2.782457  0
Zr  Zr1  1  0.11141713  0.10293590  0.39746227  1  2.637965  0  1.631595  2.375728  0  2.775197  0
Zr  Zr2  1  0.10224711  0.89377953  0.60678674  1  2.637907  0  1.623655  2.378927  0  2.729897  0
Zr  Zr3  1  0.89721474  0.11198419  0.38868147  1  2.636186  0  1.618477  2.37487  0  2.736959  0
Zr  Zr4  1  0.10874758  0.89369205  0.38874805  1  2.637555  0  1.619751  2.379288  0  2.727073  0
Zr  Zr5  1  0.89060748  0.11160449  0.60690136  1  2.637279  0  1.62025  2.378721  0  2.729675  0
H  H6  1  0.07752992  0.75297848  0.57708985  1  0.594223  0  0.33178  0.425049  0  0.852755  0
H  H7  1  0.09208775  0.08236439  0.24767072  1  0.600676  0  0.331777  0.424837  0  0.855253  0
H  H8  1  0.08317552  0.08217927  0.58913591  1  0.606424  0  0.330919  0.424746  0  0.853623  0
H  H9  1  0.74492694  0.09427650  0.57707598  1  0.596964  0  0.330597  0.424134  0  0.853828  0
H  H10  1  0.12537367  0.61213764  0.36192942  1  0.123849  0  0.123213  0.149438  0  0.967643  0
H  H11  1  0.61056641  0.12758160  0.89840539  1  0.1076  0  0.123299  0.149185  0  0.967487  0
H  H12  1  0.86806528  0.12554488  0.11667486  1  0.159634  0  0.121148  0.146857  0  0.970851  0
H  H13  1  0.62150570  0.39542436  0.36382247  1  0.134469  0  0.121434  0.147359  0  0.970269  0
H  H14  1  0.10023671  0.63822901  0.86917177  1  0.102877  0  0.107895  0.114927  0  1.02397  0
H  H15  1  0.84304161  0.65527124  0.84949102  1  0.079641  0  0.104922  0.115968  0  1.00565  0
H  H16  1  0.89170751  0.37460414  0.13265437  1  0.059568  0  0.104636  0.11007  0  1.029708  0
H  H17  1  0.15125112  0.35513500  0.14996486  1  0.08419  0  0.1058  0.116796  0  1.002363  0
H  H18  1  0.62103400  0.87639264  0.61035066  1  0.118778  0  0.122729  0.149041  0  0.970839  0
H  H19  1  0.26588495  0.44632398  0.97779565  1  0.060308  0  0.095802  0.132138  0  0.988033  0
H  H20  1  0.19869493  0.57006160  0.92901580  1  0.037982  0  0.094989  0.132906  0  1.017018  0
H  H21  1  0.19182390  0.52515413  0.05224641  1  0.043502  0  0.095827  0.132396  0  0.98909  0
H  H22  1  0.80915665  0.48339022  0.94058150  1  0.040413  0  0.095897  0.132382  0  0.987997  0
H  H23  1  0.80171377  0.43439352  0.06426827  1  0.024211  0  0.091811  0.126112  0  1.023589  0
H  H24  1  0.72999232  0.55765389  0.01962974  1  0.043358  0  0.095985  0.132554  0  0.989423  0
C  C25  1  0.99433082  0.73923337  0.48447767  1  1.583055  0  0.225707  0.642852  0  4.15976  0
C  C26  1  0.28132232  0.98901444  0.23439449  1  1.566377  0  0.224631  0.66434  0  4.153829  0
C  C27  1  0.99735080  0.27284250  0.50451819  1  1.584682  0  0.224323  0.663609  0  4.154448  0
C  C28  1  0.72466431  0.00873095  0.76803010  1  1.574509  0  0.22685  0.642905  0  4.158228  0
C  C29  1  0.98066584  0.74114056  0.76535738  1  1.539752  0  0.235899  0.642996  0  4.090648  0
C  C30  1  0.73113584  0.00673701  0.48593137  1  1.576242  0  0.225896  0.644388  0  4.157902  0
C  C31  1  0.01188311  0.27091974  0.23572281  1  1.539336  0  0.235596  0.64271  0  4.090709  0
C  C32  1  0.27570700  0.99201983  0.50044958  1  1.61637  0  0.223649  0.663089  0  4.157197  0
C  C33  1  0.27258441  0.73092837  0.49588448  1  1.586911  0  0.224563  0.664775  0  4.148718  0
C  C34  1  0.99100745  0.99741951  0.77693483  1  1.576865  0  0.223831  0.66467  0  4.150323  0
C  C35  1  0.73364744  0.28169768  0.49308103  1  1.584163  0  0.225933  0.644257  0  4.154001  0
C  C36  1  0.00007572  0.00025457  0.22616388  1  1.581143  0  0.226728  0.646386  0  4.151271  0
C  C37  1  0.92724140  0.42290399  0.56243043  1  0.527059  0  0.10121  0.251316  0  4.08607  0
C  C38  1  0.06180014  0.59306182  0.42347882  1  0.068295  0  -0.086623  -0.132122  0  3.961061  0
C  C39  1  0.99496824  0.36450406  0.50094532  1  -0.088569  0  -0.035842  -0.247283  0  3.971481  0
C  C40  1  0.99355963  0.64949911  0.48631404  1  -0.172939  0  -0.020768  -0.116681  0  3.965924  0
C  C41  1  0.03692218  0.51051722  0.45142449  1  -0.152648  0  -0.019898  0.005314  0  4.086651  0
C  C42  1  0.94993277  0.50640188  0.53532837  1  -0.107217  0  -0.033763  -0.138935  0  4.114265  0
C  C43  1  0.42287256  0.92779821  0.08744915  1  0.575665  0  0.100351  0.250494  0  4.085728  0
C  C44  1  0.58951269  0.06591174  0.91777133  1  0.061054  0  -0.086708  -0.13153  0  3.958339  0
C  C45  1  0.37041767  0.98947813  0.14567019  1  -0.098782  0  -0.036345  -0.24869  0  3.971627  0
C  C46  1  0.63937282  0.00391295  0.86061390  1  -0.170066  0  -0.01986  -0.113694  0  3.962765  0
C  C47  1  0.51056346  0.03752018  0.00086642  1  -0.172596  0  -0.019957  0.003937  0  4.086643  0
C  C48  1  0.50280300  0.95409011  0.00463854  1  -0.122871  0  -0.033707  -0.138087  0  4.113157  0
C  C49  1  0.05693490  0.93039649  0.91670466  1  0.558095  0  0.101558  0.252211  0  4.078833  0
C  C50  1  0.92911060  0.06346563  0.09229404  1  -0.071689  0  -0.088341  -0.133871  0  3.960611  0
C  C51  1  0.99073696  0.99593063  0.86659734  1  -0.064203  0  -0.036145  -0.247598  0  3.959836  0
C  C52  1  0.99707618  0.99760121  0.13982761  1  -0.100781  0  -0.020118  -0.116093  0  3.954829  0
C  C53  1  0.95109158  0.03841061  0.01098523  1  -0.141734  0  -0.019872  0.007832  0  4.082941  0
C  C54  1  0.03565592  0.95348055  0.99884366  1  -0.153748  0  -0.033726  -0.140232  0  4.111797  0
C  C55  1  0.41475126  0.59472124  0.55963158  1  0.565529  0  0.10084  0.251594  0  4.079599  0
C  C56  1  0.59629135  0.41987344  0.42581649  1  0.020088  0  -0.088329  -0.133939  0  3.96029  0
C  C57  1  0.36382483  0.64461977  0.49424115  1  -0.117372  0  -0.035837  -0.246232  0  3.959325  0
C  C58  1  0.64503948  0.37139116  0.49255445  1  -0.151896  0  -0.020671  -0.116329  0  3.955472  0
C  C59  1  0.51236993  0.50160433  0.45049968  1  -0.184404  0  -0.019877  0.008574  0  4.082478  0
C  C60  1  0.49937128  0.51323489  0.53592836  1  -0.125908  0  -0.033647  -0.141298  0  4.111948  0
C  C61  1  0.04198007  0.60768170  0.89914865  1  -0.072873  0  -0.08036  -0.136  0  3.94632  0
C  C62  1  0.89553031  0.61726422  0.88828231  1  -0.077041  0  -0.09219  -0.173703  0  3.96464  0
C  C63  1  0.88633096  0.53562150  0.96891246  1  0.020757  0  -0.003043  0.132779  0  3.938419  0
C  C64  1  0.95662556  0.48752607  0.01834675  1  0.010315  0  -0.002437  0.024383  0  3.95129  0
C  C65  1  0.95046861  0.40464741  0.10214580  1  0.011299  0  -0.083547  -0.140182  0  3.957097  0
C  C66  1  0.09801290  0.39388411  0.11192967  1  -0.002723  0  -0.091001  -0.17014  0  3.959069  0
C  C67  1  0.10823132  0.47452399  0.03023344  1  0.018093  0  -0.001193  0.131936  0  3.940807  0
C  C68  1  0.03667177  0.52388042  0.98205925  1  -0.024533  0  -0.001206  0.026283  0  3.947752  0
C  C69  1  0.97275673  0.65371273  0.85332845  1  -0.003105  0  -0.021884  -0.038115  0  4.028502  0
C  C70  1  0.01934303  0.35888114  0.14831502  1  -0.101837  0  -0.021991  -0.038363  0  4.031394  0
C  C71  1  0.41762859  0.05773276  0.42989064  1  0.595131  0  0.101202  0.251941  0  4.083112  0
C  C72  1  0.59611879  0.93556737  0.55104529  1  0.02832  0  -0.0864  -0.130267  0  3.959916  0
C  C73  1  0.36684661  0.99172563  0.49618895  1  -0.137913  0  -0.036503  -0.249238  0  3.970806  0
C  C74  1  0.64417597  0.00331872  0.48487180  1  -0.137843  0  -0.021812  -0.117118  0  3.967014  0
C  C75  1  0.51351986  0.95548301  0.53045384  1  -0.161561  0  -0.019525  0.006577  0  4.086238  0
C  C76  1  0.50119372  0.03825159  0.44839754  1  -0.141303  0  -0.033908  -0.139792  0  4.117362  0
C  C77  1  0.19506829  0.50656628  0.99471948  1  -0.069828  0  -0.233619  -0.408749  0  3.972289  0
C  C78  1  0.80289867  0.50021665  0.00085537  1  -0.039779  0  -0.23472  -0.407813  0  3.975208  0
S  S79  1  0.08852065  0.41245678  0.40776795  1  0.261027  0  0.090079  0.146628  0  2.745706  0
S  S80  1  0.89871394  0.60352767  0.57962966  1  0.283302  0  0.092232  0.155131  0  2.753029  0
S  S81  1  0.42009398  0.08145982  0.09871874  1  0.282117  0  0.08921  0.145906  0  2.745026  0
S  S82  1  0.59196291  0.91053245  0.90680396  1  0.280486  0  0.093843  0.156663  0  2.752693  0
S  S83  1  0.90001850  0.08781748  0.92151570  1  0.272047  0  0.084324  0.138081  0  2.733452  0
S  S84  1  0.08785688  0.90452310  0.08686365  1  0.294845  0  0.094782  0.159323  0  2.736775  0
S  S85  1  0.42110270  0.59087370  0.40121163  1  0.278736  0  0.085124  0.139118  0  2.732681  0
S  S86  1  0.58992396  0.42442619  0.58556610  1  0.294394  0  0.095  0.159754  0  2.738637  0
S  S87  1  0.42279173  0.90346851  0.58275406  1  0.290659  0  0.093166  0.150525  0  2.727535  0
S  S88  1  0.59047524  0.09137387  0.39673385  1  0.277646  0  0.089865  0.151384  0  2.740278  0
O  O89  1  0.92290092  0.77733305  0.55207034  1  -1.179758  0  -0.357358  -0.617061  0  2.293785  0
O  O90  1  0.24699835  0.05745069  0.27143918  1  -1.171435  0  -0.357128  -0.61434  0  2.276785  0
O  O91  1  0.07033598  0.23421217  0.43785842  1  -1.173466  0  -0.356183  -0.613764  0  2.275029  0
O  O92  1  0.75684439  0.94296416  0.72837706  1  -1.173153  0  -0.35657  -0.616541  0  2.292666  0
O  O93  1  0.05214749  0.77170357  0.73407897  1  -1.180311  0  -0.352782  -0.616183  0  2.27178  0
O  O94  1  0.76608125  0.07511021  0.41997419  1  -1.177796  0  -0.352797  -0.617734  0  2.257341  0
O  O95  1  0.94102408  0.23960262  0.26624255  1  -1.181696  0  -0.357167  -0.624073  0  2.270601  0
O  O96  1  0.23903352  0.92565905  0.56898326  1  -1.185972  0  -0.350889  -0.611332  0  2.23865  0
O  O97  1  0.23987067  0.76336320  0.42659961  1  -1.1692  0  -0.35486  -0.617316  0  2.247002  0
O  O98  1  0.92315076  0.06817518  0.74285866  1  -1.176461  0  -0.354295  -0.618033  0  2.246378  0
O  O99  1  0.76505355  0.24689742  0.56370037  1  -1.176366  0  -0.351134  -0.614113  0  2.263599  0
O  O100  1  0.06922206  0.93132441  0.25915149  1  -1.178595  0  -0.352248  -0.615334  0  2.264108  0
O  O101  1  0.06006843  0.92874399  0.73947238  1  -1.175531  0  -0.360268  -0.61433  0  2.276247  0
O  O102  1  0.77045220  0.24538423  0.42353912  1  -1.178902  0  -0.359085  -0.614435  0  2.260636  0
O  O103  1  0.93381210  0.07221349  0.25990161  1  -1.181399  0  -0.359336  -0.615215  0  2.260368  0
O  O104  1  0.23267579  0.76583957  0.56707104  1  -1.167111  0  -0.361226  -0.615437  0  2.277827  0
O  O105  1  0.91500407  0.77903927  0.72571258  1  -1.172826  0  -0.36545  -0.624265  0  2.307697  0
O  O106  1  0.23962830  0.06111664  0.43462312  1  -1.181129  0  -0.366843  -0.615728  0  2.306925  0
O  O107  1  0.07912874  0.23126960  0.27368718  1  -1.176396  0  -0.362155  -0.619779  0  2.30882  0
O  O108  1  0.76323948  0.94037061  0.55528548  1  -1.17625  0  -0.362775  -0.613273  0  2.286944  0
O  O109  1  0.75858406  0.07782392  0.73462436  1  -1.179388  0  -0.357231  -0.610922  0  2.25337  0
O  O110  1  0.06625149  0.77034520  0.41780774  1  -1.181239  0  -0.355239  -0.608988  0  2.25193  0
O  O111  1  0.24423323  0.92264799  0.26629111  1  -1.167701  0  -0.36018  -0.613205  0  2.266784  0
O  O112  1  0.92806277  0.23870871  0.57324591  1  -1.176505  0  -0.360725  -0.613689  0  2.268862  0
O  O113  1  0.81730235  0.06929513  0.55395877  1  -1.225276  0  -0.693109  -1.069722  0  2.352236  0
O  O114  1  0.05883846  0.05914973  0.56411874  1  -1.235136  0  -0.69274  -1.070278  0  2.354021  0
O  O115  1  0.06612265  0.05885611  0.31870820  1  -1.229018  0  -0.693862  -1.070321  0  2.360274  0
O  O116  1  0.05566444  0.82401391  0.55343682  1  -1.221255  0  -0.694043  -1.070708  0  2.357884  0
O  O117  1  0.13361472  0.95376177  0.45613073  1  -1.199135  0  -0.788469  -1.150104  0  2.118611  0
O  O118  1  0.95592370  0.96140180  0.44820660  1  -1.201427  0  -0.788644  -1.149134  0  2.115153  0
O  O119  1  0.95784634  0.13458160  0.45668035  1  -1.196531  0  -0.789978  -1.149025  0  2.123884  0
O  O120  1  0.95041236  0.96175488  0.62932126  1  -1.199283  0  -0.790151  -1.149489  0  2.123131  0
F  F121  1  0.84777739  0.40335751  0.64056334  1  -0.622114  0  -0.088607  -0.108481  0  1.352716  0
F  F122  1  0.40082531  0.85080101  0.10591091  1  -0.615677  0  -0.088851  -0.108723  0  1.351771  0
F  F123  1  0.13472964  0.85243921  0.89090108  1  -0.626408  0  -0.087156  -0.105767  0  1.351987  0
F  F124  1  0.38772213  0.61954789  0.63856770  1  -0.62137  0  -0.087403  -0.106404  0  1.353254  0
F  F125  1  0.39150283  0.13369015  0.35530174  1  -0.624776  0  -0.087405  -0.107252  0  1.363709  0
