# generated using pymatgen
data_Al2H16C22N2O11
_symmetry_space_group_name_H-M   'P 1'
_cell_length_a   6.68546755
_cell_length_b   11.17836226
_cell_length_c   15.35866423
_cell_angle_alpha   78.67095496
_cell_angle_beta   76.71368041
_cell_angle_gamma   72.24108968
_symmetry_Int_Tables_number   1
_chemical_formula_structural   Al2H16C22N2O11
_chemical_formula_sum   'Al2 H16 C22 N2 O11'
_cell_volume   1053.90967282
_cell_formula_units_Z   1
loop_
 _symmetry_equiv_pos_site_id
 _symmetry_equiv_pos_as_xyz
  1  'x, y, z'
loop_
 _atom_site_type_symbol
 _atom_site_label
 _atom_site_symmetry_multiplicity
 _atom_site_fract_x
 _atom_site_fract_y
 _atom_site_fract_z
 _atom_site_occupancy
 _atom_site_pbe_bader_charge
 _atom_site_pbe_bader_spin_density
 _atom_site_pbe_cm5_charge
 _atom_site_pbe_ddec_charge
 _atom_site_pbe_ddec_spin_density
 _atom_site_pbe_ddec_sum_bond_order
 _atom_site_pbe_magmom
Al  Al0  1  0.49872560  0.50544003  0.50174144  1  2.504866  0  0.400469  1.638573  0  2.578988  0
Al  Al1  1  0.00325935  0.49867411  0.50062988  1  2.506022  0  0.395172  1.639933  0  2.595001  0
H  H2  1  0.25338825  0.60578068  0.39742450  1  0.617763  0  0.353047  0.430216  0  0.851677  0
H  H3  1  0.79357170  0.34866570  0.55602144  1  0.62163  0  0.351487  0.425201  0  0.861617  0
H  H4  1  0.13551211  0.12252113  0.48376638  1  0.099826  0  0.103197  0.108284  0  1.019439  0
H  H5  1  0.76298150  0.11599025  0.51567700  1  0.087671  0  0.110612  0.128053  0  1.006065  0
H  H6  1  0.25396310  0.88836403  0.48607452  1  0.126875  0  0.106482  0.116169  0  1.043394  0
H  H7  1  0.73906727  0.44944924  0.94784794  1  0.020471  0  0.097951  0.104711  0  1.021619  0
H  H8  1  0.29771353  0.44911662  0.06004416  1  0.042028  0  0.098163  0.105085  0  1.022365  0
H  H9  1  0.55403924  0.56918237  0.22660840  1  0.102231  0  0.100919  0.098333  0  1.024991  0
H  H10  1  0.61995166  0.57449349  0.06046897  1  0.048495  0  0.094629  0.098445  0  1.024718  0
H  H11  1  0.36962001  0.57725919  0.76155509  1  0.095303  0  0.106771  0.107906  0  1.012585  0
H  H12  1  0.29229385  0.58221800  0.92739463  1  0.047758  0  0.094671  0.098249  0  1.026117  0
H  H13  1  0.94077263  0.78198979  0.51838183  1  0.639917  0  0.317434  0.359835  0  0.95762  0
H  H14  1  0.79753510  0.44971198  0.70863350  1  0.530847  0  0.308502  0.320159  0  0.980177  0
H  H15  1  0.64367419  0.42652287  0.81614064  1  0.447894  0  0.305666  0.300146  0  0.961738  0
H  H16  1  0.24694569  0.44010209  0.30015346  1  0.510617  0  0.310124  0.315931  0  0.978307  0
H  H17  1  0.42059868  0.41139357  0.19729498  1  0.461012  0  0.31035  0.307731  0  0.949667  0
C  C18  1  0.82917218  0.50863132  0.33681971  1  1.511619  0  0.259057  0.655674  0  4.083981  0
C  C19  1  0.63824439  0.73110076  0.50201122  1  1.516034  0  0.267841  0.654122  0  4.07969  0
C  C20  1  0.16803500  0.50341280  0.66283716  1  1.505399  0  0.260081  0.64979  0  4.091473  0
C  C21  1  0.36799817  0.27329411  0.50085156  1  1.549768  0  0.269441  0.647521  0  4.072302  0
C  C22  1  0.57417324  0.86961969  0.50141987  1  -0.036879  0  -0.031335  -0.193581  0  3.980461  0
C  C23  1  0.44200339  0.13324912  0.49994722  1  -0.058309  0  -0.011337  -0.018084  0  4.00219  0
C  C24  1  0.71971906  0.93453943  0.51000601  1  0.592633  0  0.097283  0.316002  0  4.058119  0
C  C25  1  0.29794175  0.06907528  0.49111817  1  -0.047289  0  -0.098073  -0.128575  0  4.000162  0
C  C26  1  0.65119884  0.06649183  0.50902106  1  -0.000913  0  -0.09478  -0.214433  0  3.923681  0
C  C27  1  0.36466463  0.93900688  0.49185637  1  0.025483  0  -0.07954  -0.057287  0  3.989359  0
C  C28  1  0.10438952  0.50893837  0.76042166  1  0.012379  0  -0.037045  -0.189525  0  3.943964  0
C  C29  1  0.88400098  0.50757482  0.23844457  1  -0.009589  0  -0.03834  -0.187948  0  3.941947  0
C  C30  1  0.91726984  0.47625094  0.81293474  1  0.451001  0  0.117369  0.325627  0  4.063936  0
C  C31  1  0.87776105  0.47857839  0.90732582  1  -0.000238  0  -0.106755  -0.261741  0  3.921389  0
C  C32  1  0.09942376  0.47410070  0.19084430  1  0.477213  0  0.115081  0.324106  0  4.077023  0
C  C33  1  0.13329771  0.47700869  0.09618840  1  0.002487  0  -0.106272  -0.260799  0  3.919613  0
C  C34  1  0.71681798  0.54128981  0.18921518  1  -0.064568  0  -0.091661  -0.073227  0  4.056186  0
C  C35  1  0.75338136  0.54315963  0.09665680  1  -0.057647  0  -0.117772  -0.193128  0  4.036331  0
C  C36  1  0.23443793  0.54675295  0.80398196  1  -0.015153  0  -0.08841  -0.070396  0  4.049686  0
C  C37  1  0.19221154  0.54872183  0.89619572  1  -0.092419  0  -0.118008  -0.195036  0  4.042604  0
C  C38  1  0.01174525  0.51241335  0.94955644  1  0.014742  0  -0.003923  0.103234  0  4.027318  0
C  C39  1  0.96584082  0.51059159  0.04861623  1  -0.038654  0  -0.002679  0.105121  0  4.021312  0
N  N40  1  0.78126922  0.43962439  0.77693630  1  -1.294744  0  -0.584564  -0.603071  0  3.353074  0
N  N41  1  0.27066186  0.43659056  0.23303036  1  -1.303562  0  -0.586654  -0.609276  0  3.368999  0
O  O42  1  0.63941512  0.50710093  0.37664058  1  -1.272436  0  -0.248185  -0.614345  0  2.345362  0
O  O43  1  0.83407492  0.67148235  0.50894987  1  -1.261989  0  -0.235213  -0.600361  0  2.386534  0
O  O44  1  0.03437184  0.48547837  0.62170132  1  -1.272025  0  -0.240517  -0.608148  0  2.389934  0
O  O45  1  0.50179370  0.32935006  0.50869600  1  -1.261692  0  -0.237683  -0.603149  0  2.337922  0
O  O46  1  0.35324568  0.51442957  0.62342096  1  -1.270166  0  -0.242169  -0.595248  0  2.337447  0
O  O47  1  0.17298070  0.32728039  0.49400779  1  -1.274226  0  -0.240012  -0.608548  0  2.357203  0
O  O48  1  0.97562994  0.51252538  0.37734582  1  -1.275101  0  -0.246676  -0.62433  0  2.372148  0
O  O49  1  0.50224116  0.67731921  0.49498390  1  -1.254299  0  -0.227367  -0.569302  0  2.353451  0
O  O50  1  0.24145271  0.56207932  0.45867914  1  -1.426642  0  -0.449663  -0.992058  0  2.195732  0
O  O51  1  0.75987713  0.44039213  0.54252823  1  -1.426776  0  -0.446672  -0.979195  0  2.171232  0
O  O52  1  0.92300406  0.87401660  0.51970437  1  -1.154669  0  -0.340493  -0.433365  0  2.308795  0
