# generated using pymatgen
data_CuH20C14S6IN4
_symmetry_space_group_name_H-M   'P 1'
_cell_length_a   8.66116090
_cell_length_b   14.39231148
_cell_length_c   21.83393921
_cell_angle_alpha   90.00027151
_cell_angle_beta   89.99983486
_cell_angle_gamma   90.00019127
_symmetry_Int_Tables_number   1
_chemical_formula_structural   CuH20C14S6IN4
_chemical_formula_sum   'Cu4 H80 C56 S24 I4 N16'
_cell_volume   2721.69059666
_cell_formula_units_Z   4
loop_
 _symmetry_equiv_pos_site_id
 _symmetry_equiv_pos_as_xyz
  1  'x, y, z'
loop_
 _atom_site_type_symbol
 _atom_site_label
 _atom_site_symmetry_multiplicity
 _atom_site_fract_x
 _atom_site_fract_y
 _atom_site_fract_z
 _atom_site_occupancy
 _atom_site_pbe_bader_charge
 _atom_site_pbe_bader_spin_density
 _atom_site_pbe_cm5_charge
 _atom_site_pbe_ddec_charge
 _atom_site_pbe_ddec_spin_density
 _atom_site_pbe_ddec_sum_bond_order
 _atom_site_pbe_magmom
Cu  Cu0  1  0.49133390  0.79349483  0.53257275  1  0.381058  0  0.266656  0.22443  0  2.734002  0
Cu  Cu1  1  0.99132490  0.20651196  0.96743215  1  0.380942  0  0.266642  0.224426  0  2.733834  0
Cu  Cu2  1  0.50867496  0.70651119  0.03257121  1  0.381001  0  0.26668  0.224449  0  2.733852  0
Cu  Cu3  1  0.00866769  0.29349103  0.46743054  1  0.38095  0  0.266619  0.224323  0  2.733894  0
H  H4  1  0.56541168  0.05084941  0.62501615  1  0.083999  0  0.097459  0.081117  0  1.001721  0
H  H5  1  0.06540865  0.94914539  0.87498602  1  0.084029  0  0.097461  0.081144  0  1.001686  0
H  H6  1  0.43458801  0.44915390  0.12501500  1  0.084046  0  0.097468  0.081172  0  1.001725  0
H  H7  1  0.93459079  0.55084988  0.37498763  1  0.084067  0  0.097479  0.081149  0  1.001738  0
H  H8  1  0.73174415  0.11108998  0.59739951  1  0.080137  0  0.092963  0.076051  0  1.028316  0
H  H9  1  0.23174752  0.88890516  0.90260110  1  0.08006  0  0.092929  0.075983  0  1.028336  0
H  H10  1  0.26824881  0.38891313  0.09739791  1  0.080182  0  0.092958  0.076121  0  1.028277  0
H  H11  1  0.76825057  0.61109031  0.40260263  1  0.080112  0  0.092964  0.076018  0  1.028392  0
H  H12  1  0.52057529  0.11412653  0.52055963  1  0.059408  0  0.082561  0.126043  0  1.029359  0
H  H13  1  0.02057808  0.88586749  0.97944305  1  0.059288  0  0.082576  0.126018  0  1.029451  0
H  H14  1  0.47942632  0.38587187  0.02055823  1  0.059442  0  0.082569  0.126029  0  1.02941  0
H  H15  1  0.97941714  0.61413340  0.47944435  1  0.059351  0  0.082569  0.12598  0  1.029532  0
H  H16  1  0.51277388  0.99012201  0.51951631  1  0.052475  0  0.07444  0.112765  0  1.054476  0
H  H17  1  0.01277420  0.00987269  0.98048639  1  0.052311  0  0.074459  0.112859  0  1.054475  0
H  H18  1  0.48722815  0.50987975  0.01951372  1  0.051997  0  0.074434  0.112776  0  1.054431  0
H  H19  1  0.98722175  0.49012901  0.48049023  1  0.052397  0  0.074434  0.112796  0  1.054486  0
H  H20  1  0.67775161  0.04909742  0.49102194  1  0.031716  0  0.083754  0.121392  0  1.034845  0
H  H21  1  0.17775241  0.95089820  0.00898098  1  0.031876  0  0.08378  0.121443  0  1.034787  0
H  H22  1  0.32224889  0.45090296  0.99102004  1  0.031895  0  0.083739  0.121367  0  1.034852  0
H  H23  1  0.82223700  0.54910557  0.50898367  1  0.031731  0  0.08376  0.121458  0  1.034762  0
H  H24  1  0.87908713  0.72856603  0.70347699  1  0.062385  0  0.103714  0.080478  0  0.986322  0
H  H25  1  0.37909945  0.27142664  0.79652482  1  0.062023  0  0.103758  0.080508  0  0.986305  0
H  H26  1  0.12090202  0.77143427  0.20347564  1  0.062338  0  0.103766  0.080641  0  0.986347  0
H  H27  1  0.62092786  0.22856748  0.29652048  1  0.062495  0  0.103733  0.08056  0  0.986292  0
H  H28  1  0.67985987  0.72943080  0.68249784  1  0.078487  0  0.102814  0.086893  0  1.000522  0
H  H29  1  0.17986049  0.27056146  0.81750695  1  0.078529  0  0.102801  0.086869  0  1.000611  0
H  H30  1  0.32013982  0.77056727  0.18249489  1  0.078505  0  0.102808  0.086891  0  1.000592  0
H  H31  1  0.82015281  0.22943072  0.31750604  1  0.078449  0  0.102867  0.087035  0  1.000452  0
H  H32  1  0.81421581  0.59468450  0.63214109  1  0.020448  0  0.093822  0.133784  0  0.980276  0
H  H33  1  0.31421680  0.40531289  0.86785622  1  0.020492  0  0.093816  0.133782  0  0.980276  0
H  H34  1  0.18577732  0.90531667  0.13214054  1  0.020409  0  0.093837  0.133792  0  0.980255  0
H  H35  1  0.68577997  0.09468591  0.36785779  1  0.020487  0  0.093815  0.133777  0  0.980238  0
H  H36  1  0.95036995  0.67162421  0.59803231  1  0.062541  0  0.084265  0.123237  0  1.018953  0
H  H37  1  0.45037720  0.32838180  0.90196988  1  0.062458  0  0.084278  0.123233  0  1.018906  0
H  H38  1  0.04962112  0.82838019  0.09803305  1  0.062502  0  0.08427  0.123291  0  1.018792  0
H  H39  1  0.54962394  0.17162767  0.40196453  1  0.062169  0  0.084264  0.123218  0  1.01891  0
H  H40  1  0.75328677  0.67711853  0.57566679  1  0.07857  0  0.078491  0.110966  0  1.061736  0
H  H41  1  0.25329267  0.32288569  0.92433654  1  0.078512  0  0.078494  0.110937  0  1.061755  0
H  H42  1  0.24670215  0.82288849  0.07566546  1  0.078746  0  0.078529  0.111031  0  1.061764  0
H  H43  1  0.74670369  0.17711977  0.42433418  1  0.078714  0  0.078518  0.110961  0  1.061686  0
H  H44  1  0.59626135  0.48520872  0.50859165  1  0.093895  0  0.101248  0.084119  0  1.023588  0
H  H45  1  0.09626088  0.51478823  0.99140591  1  0.094319  0  0.101266  0.084162  0  1.023607  0
H  H46  1  0.40374265  0.01478750  0.00859100  1  0.093978  0  0.10123  0.084071  0  1.023699  0
H  H47  1  0.90372964  0.98521135  0.49140983  1  0.094218  0  0.101229  0.084052  0  1.023636  0
H  H48  1  0.51142640  0.57781587  0.55122822  1  0.079057  0  0.106092  0.085289  0  0.996354  0
H  H49  1  0.01142342  0.42218091  0.94877127  1  0.078869  0  0.106093  0.085335  0  0.996385  0
H  H50  1  0.48858118  0.92218264  0.05122509  1  0.079064  0  0.106064  0.085282  0  0.99637  0
H  H51  1  0.98857045  0.07781778  0.44877565  1  0.079585  0  0.10608  0.085258  0  0.996426  0
H  H52  1  0.39888322  0.42399831  0.57975519  1  0.031332  0  0.092372  0.134125  0  1.000719  0
H  H53  1  0.89889158  0.57600412  0.92024477  1  0.031293  0  0.092374  0.134046  0  1.000836  0
H  H54  1  0.60110179  0.07599912  0.07975726  1  0.031265  0  0.092397  0.13411  0  1.000794  0
H  H55  1  0.10109599  0.92399634  0.42024301  1  0.031487  0  0.092361  0.134056  0  1.000773  0
H  H56  1  0.34043978  0.40375245  0.50305854  1  0.073622  0  0.07927  0.114606  0  1.044253  0
H  H57  1  0.84044423  0.59624709  0.99694103  1  0.073613  0  0.079287  0.114642  0  1.044196  0
H  H58  1  0.65956080  0.09624652  0.00306015  1  0.073673  0  0.07929  0.114672  0  1.044162  0
H  H59  1  0.15954856  0.90374767  0.49694005  1  0.073941  0  0.07928  0.114634  0  1.044172  0
H  H60  1  0.25380945  0.49583640  0.54609861  1  0.054898  0  0.087294  0.127145  0  1.00945  0
H  H61  1  0.75381141  0.50416713  0.95389923  1  0.054907  0  0.087319  0.127166  0  1.009354  0
H  H62  1  0.74619427  0.00416774  0.04610029  1  0.054858  0  0.087289  0.127158  0  1.009426  0
H  H63  1  0.24618169  0.99583358  0.45389798  1  0.054434  0  0.087309  0.127195  0  1.009295  0
H  H64  1  0.33387532  0.77579144  0.33243165  1  0.064862  0  0.104619  0.082341  0  0.98474  0
H  H65  1  0.83386628  0.22420658  0.16756881  1  0.064893  0  0.104603  0.082342  0  0.984752  0
H  H66  1  0.66613136  0.72420353  0.83242865  1  0.064799  0  0.10461  0.082338  0  0.98475  0
H  H67  1  0.16613079  0.27579496  0.66756883  1  0.06487  0  0.104608  0.082321  0  0.98478  0
H  H68  1  0.28758804  0.80880026  0.40868411  1  0.106408  0  0.105814  0.084903  0  1.022789  0
H  H69  1  0.78758630  0.19119766  0.09131777  1  0.1059  0  0.10581  0.084895  0  1.022795  0
H  H70  1  0.71241463  0.69119108  0.90867821  1  0.10591  0  0.105805  0.084901  0  1.022755  0
H  H71  1  0.21241595  0.30880124  0.59131601  1  0.10587  0  0.105828  0.084924  0  1.022775  0
H  H72  1  0.05100683  0.80737193  0.33954464  1  0.041675  0  0.090702  0.128822  0  0.990457  0
H  H73  1  0.55100229  0.19263594  0.16045340  1  0.041801  0  0.090645  0.128726  0  0.990542  0
H  H74  1  0.94899864  0.69263143  0.83954121  1  0.041732  0  0.090676  0.128806  0  0.990479  0
H  H75  1  0.44899829  0.30737180  0.66045274  1  0.041728  0  0.090707  0.128842  0  0.990426  0
H  H76  1  0.03171568  0.72792902  0.40090175  1  0.036402  0  0.084444  0.133147  0  1.022073  0
H  H77  1  0.53172125  0.27207742  0.09909814  1  0.036433  0  0.084451  0.133142  0  1.022064  0
H  H78  1  0.96828589  0.77207200  0.90089901  1  0.036498  0  0.084424  0.133099  0  1.022169  0
H  H79  1  0.46828786  0.22792849  0.59909720  1  0.036424  0  0.084427  0.133085  0  1.022065  0
H  H80  1  0.08007771  0.68685895  0.32610160  1  0.027181  0  0.07263  0.102807  0  1.062659  0
H  H81  1  0.58007258  0.31315036  0.17389915  1  0.027053  0  0.072665  0.102853  0  1.062505  0
H  H82  1  0.91991862  0.81314083  0.82609950  1  0.027192  0  0.072622  0.102768  0  1.06263  0
H  H83  1  0.41992907  0.18686025  0.67389723  1  0.027208  0  0.072625  0.102789  0  1.062681  0
C  C84  1  0.69024134  0.88469752  0.62339194  1  0.714557  0  0.211236  0.228496  0  4.049509  0
C  C85  1  0.19024299  0.11530171  0.87661284  1  0.714213  0  0.21115  0.228308  0  4.049434  0
C  C86  1  0.30975532  0.61530498  0.12338713  1  0.714311  0  0.211196  0.228451  0  4.049547  0
C  C87  1  0.80976180  0.38469994  0.37660923  1  0.714589  0  0.211174  0.228439  0  4.04927  0
C  C88  1  0.94950560  0.88015652  0.63562549  1  0.351645  0  0.075594  -0.006286  0  4.074621  0
C  C89  1  0.44950390  0.11984254  0.86437991  1  0.35218  0  0.075545  -0.006503  0  4.075093  0
C  C90  1  0.05049327  0.61984885  0.13561916  1  0.352075  0  0.075584  -0.006356  0  4.074693  0
C  C91  1  0.55049867  0.38015415  0.36437154  1  0.351487  0  0.075566  -0.006298  0  4.074737  0
C  C92  1  0.91130088  0.96620095  0.61180172  1  0.365342  0  0.094883  0.037154  0  4.050344  0
C  C93  1  0.41130201  0.03379734  0.88819685  1  0.364874  0  0.094931  0.037124  0  4.05054  0
C  C94  1  0.08869586  0.53379800  0.11179829  1  0.364957  0  0.094867  0.03694  0  4.050608  0
C  C95  1  0.58869924  0.46619952  0.38820061  1  0.36535  0  0.094876  0.036982  0  4.050393  0
C  C96  1  0.65774354  0.04990721  0.59043874  1  0.261982  0  -0.062555  0.003124  0  3.867368  0
C  C97  1  0.15774142  0.95008848  0.90956379  1  0.262264  0  -0.062534  0.003132  0  3.867201  0
C  C98  1  0.34225525  0.45009377  0.09043632  1  0.2621  0  -0.062603  0.002777  0  3.867398  0
C  C99  1  0.84225431  0.54991052  0.40956459  1  0.262312  0  -0.062554  0.003105  0  3.867322  0
C  C100  1  0.58842974  0.05027586  0.52648971  1  -0.078543  0  -0.254911  -0.382132  0  3.914078  0
C  C101  1  0.08842831  0.94971969  0.97351427  1  -0.078464  0  -0.254961  -0.382258  0  3.914156  0
C  C102  1  0.41157298  0.44972536  0.02648584  1  -0.078372  0  -0.254907  -0.382058  0  3.91408  0
C  C103  1  0.91156119  0.55028116  0.47351590  1  -0.078502  0  -0.254918  -0.382168  0  3.914216  0
C  C104  1  0.79821822  0.73603994  0.66503232  1  0.300976  0  -0.059508  -0.003886  0  3.90586  0
C  C105  1  0.29822099  0.26395673  0.83496959  1  0.30147  0  -0.059452  -0.003846  0  3.905816  0
C  C106  1  0.20177698  0.76396425  0.16503314  1  0.300997  0  -0.05958  -0.004125  0  3.906065  0
C  C107  1  0.70179103  0.23604045  0.33496701  1  0.300775  0  -0.059603  -0.00421  0  3.906134  0
C  C108  1  0.83106947  0.66557092  0.61468580  1  -0.1067  0  -0.245134  -0.379237  0  3.922595  0
C  C109  1  0.33107225  0.33442790  0.88531607  1  -0.106626  0  -0.245159  -0.37921  0  3.922509  0
C  C110  1  0.16892379  0.83443152  0.11468642  1  -0.106852  0  -0.245177  -0.379353  0  3.922497  0
C  C111  1  0.66892786  0.16557380  0.38531239  1  -0.106467  0  -0.245122  -0.379117  0  3.922487  0
C  C112  1  0.35705155  0.65020611  0.45758201  1  0.779684  0  0.218066  0.237937  0  4.018373  0
C  C113  1  0.85705219  0.34979265  0.04241613  1  0.779674  0  0.218088  0.237969  0  4.018176  0
C  C114  1  0.64295075  0.84979045  0.95758263  1  0.779605  0  0.218137  0.238045  0  4.018335  0
C  C115  1  0.14294925  0.15020521  0.54241808  1  0.77963  0  0.218117  0.23808  0  4.01827  0
C  C116  1  0.07942150  0.10620977  0.63869522  1  0.277494  0  0.076054  0.001897  0  4.063317  0
C  C117  1  0.57942048  0.89378367  0.86130511  1  0.277562  0  0.076104  0.001834  0  4.063377  0
C  C118  1  0.92058386  0.39378877  0.13869334  1  0.277351  0  0.076033  0.001826  0  4.063689  0
C  C119  1  0.42057906  0.60620664  0.36130610  1  0.277459  0  0.07608  0.001816  0  4.063394  0
C  C120  1  0.01045728  0.04467462  0.59850681  1  0.471441  0  0.097176  0.043106  0  4.035519  0
C  C121  1  0.51045631  0.95532494  0.90149497  1  0.471518  0  0.09707  0.043047  0  4.035302  0
C  C122  1  0.98953683  0.45532781  0.09850642  1  0.471506  0  0.097173  0.043173  0  4.035485  0
C  C123  1  0.48954410  0.54466845  0.40149569  1  0.471558  0  0.097097  0.043192  0  4.035307  0
C  C124  1  0.48903907  0.52389527  0.51674147  1  0.271525  0  -0.057558  -0.005602  0  3.890508  0
C  C125  1  0.98903835  0.47610179  0.98325656  1  0.271263  0  -0.05757  -0.005678  0  3.890551  0
C  C126  1  0.51096759  0.97610230  0.01673940  1  0.270599  0  -0.057419  -0.005444  0  3.890529  0
C  C127  1  0.01095873  0.02389436  0.48326006  1  0.270679  0  -0.057509  -0.005437  0  3.890523  0
C  C128  1  0.36174064  0.45814900  0.53731583  1  -0.106206  0  -0.246803  -0.382469  0  3.924419  0
C  C129  1  0.86174620  0.54185267  0.96268280  1  -0.106159  0  -0.246847  -0.382439  0  3.924394  0
C  C130  1  0.63825507  0.04184952  0.03731683  1  -0.106149  0  -0.246883  -0.382634  0  3.924592  0
C  C131  1  0.13824799  0.95814671  0.46268247  1  -0.106137  0  -0.246822  -0.382521  0  3.92433  0
C  C132  1  0.26866215  0.75564187  0.37344990  1  0.266443  0  -0.058756  -0.006441  0  3.913974  0
C  C133  1  0.76865698  0.24435879  0.12655017  1  0.266436  0  -0.058696  -0.006352  0  3.914066  0
C  C134  1  0.73134539  0.74435339  0.87344735  1  0.266415  0  -0.058682  -0.006288  0  3.913905  0
C  C135  1  0.23134385  0.25564384  0.62655097  1  0.266361  0  -0.058712  -0.006324  0  3.914057  0
C  C136  1  0.09807072  0.74315304  0.35929862  1  -0.03483  0  -0.248448  -0.381529  0  3.930324  0
C  C137  1  0.59807013  0.25685562  0.14070211  1  -0.034375  0  -0.24845  -0.38152  0  3.930242  0
C  C138  1  0.90193346  0.75684838  0.85929591  1  -0.034559  0  -0.248385  -0.381442  0  3.930308  0
C  C139  1  0.40193406  0.24315267  0.64070084  1  -0.034381  0  -0.248426  -0.381471  0  3.930293  0
S  S140  1  0.50023093  0.85734245  0.62524829  1  -0.120566  0  -0.240842  -0.40342  0  2.883421  0
S  S141  1  0.00023390  0.14265430  0.87475305  1  -0.120541  0  -0.240801  -0.403372  0  2.883172  0
S  S142  1  0.49976225  0.64266493  0.12524839  1  -0.120493  0  -0.240847  -0.403455  0  2.883291  0
S  S143  1  0.99977321  0.35734941  0.37475050  1  -0.120619  0  -0.240812  -0.403394  0  2.883084  0
S  S144  1  0.12966959  0.83667559  0.65402110  1  0.114172  0  0.034227  0.050455  0  2.846215  0
S  S145  1  0.62966700  0.16331796  0.84598237  1  0.11421  0  0.034226  0.050525  0  2.846381  0
S  S146  1  0.87032338  0.66332575  0.15401489  1  0.1141  0  0.034266  0.05053  0  2.846297  0
S  S147  1  0.37033685  0.33667443  0.34597636  1  0.114123  0  0.034281  0.050523  0  2.846272  0
S  S148  1  0.16105203  0.88600923  0.74370081  1  -0.010114  0  0.016262  -0.017381  0  2.834569  0
S  S149  1  0.66104521  0.11398577  0.75630034  1  -0.010235  0  0.0162  -0.01749  0  2.834542  0
S  S150  1  0.83894722  0.61399345  0.24369631  1  -0.010194  0  0.016164  -0.017487  0  2.834721  0
S  S151  1  0.33895468  0.38601084  0.25629589  1  -0.010005  0  0.016216  -0.017451  0  2.834564  0
S  S152  1  0.27998215  0.70752644  0.51813695  1  -0.17573  0  -0.224898  -0.379188  0  2.709972  0
S  S153  1  0.77996773  0.29247575  0.98186223  1  -0.175781  0  -0.224918  -0.379217  0  2.709988  0
S  S154  1  0.72003606  0.79247601  0.01813636  1  -0.175794  0  -0.224904  -0.379214  0  2.709996  0
S  S155  1  0.22002128  0.20751900  0.48186332  1  -0.175573  0  -0.224913  -0.379194  0  2.710037  0
S  S156  1  0.07501072  0.10671240  0.71794478  1  0.118798  0  0.024205  0.005456  0  2.908364  0
S  S157  1  0.57499757  0.89328450  0.78205784  1  0.11869  0  0.024196  0.005486  0  2.908732  0
S  S158  1  0.92499868  0.39329296  0.21794015  1  0.118871  0  0.024173  0.005416  0  2.908618  0
S  S159  1  0.42499562  0.60671149  0.28206021  1  0.11874  0  0.024171  0.005416  0  2.908588  0
S  S160  1  0.25728504  0.01434320  0.73752918  1  0.012859  0  0.019149  -0.012711  0  2.946229  0
S  S161  1  0.75726907  0.98565060  0.76247278  1  0.013037  0  0.019224  -0.012613  0  2.946311  0
S  S162  1  0.74272191  0.48565814  0.23752275  1  0.012937  0  0.019186  -0.01267  0  2.946285  0
S  S163  1  0.24272426  0.51434317  0.26247094  1  0.012877  0  0.019169  -0.012651  0  2.946247  0
I  I164  1  0.69915972  0.80750779  0.45210618  1  -0.56375  0  -0.323228  -0.481125  0  1.385343  0
I  I165  1  0.19914571  0.19249273  0.04789626  1  -0.563731  0  -0.32323  -0.481123  0  1.38534  0
I  I166  1  0.30084609  0.69249360  0.95210670  1  -0.563708  0  -0.323225  -0.481127  0  1.385337  0
I  I167  1  0.80085338  0.30750586  0.54789474  1  -0.563724  0  -0.323202  -0.481064  0  1.38547  0
N  N168  1  0.75210285  0.96772727  0.60452736  1  -1.180248  0  -0.229882  -0.037285  0  3.684246  0
N  N169  1  0.25210392  0.03226931  0.89547551  1  -1.180057  0  -0.229796  -0.037058  0  3.683866  0
N  N170  1  0.24789625  0.53227510  0.10452374  1  -1.180368  0  -0.229777  -0.036954  0  3.684055  0
N  N171  1  0.74789958  0.46772900  0.39547544  1  -1.180547  0  -0.229777  -0.037098  0  3.683851  0
N  N172  1  0.81170636  0.83142066  0.64279094  1  -1.162144  0  -0.237369  -0.035188  0  3.72261  0
N  N173  1  0.31170729  0.16857812  0.85721233  1  -1.162158  0  -0.237455  -0.035123  0  3.72247  0
N  N174  1  0.18829362  0.66858337  0.14278690  1  -1.16172  0  -0.23736  -0.035009  0  3.722459  0
N  N175  1  0.68830226  0.33142060  0.35720823  1  -1.161837  0  -0.237413  -0.035211  0  3.722383  0
N  N176  1  0.44920873  0.57252585  0.46009673  1  -1.169917  0  -0.227978  -0.021231  0  3.669103  0
N  N177  1  0.94920634  0.42747380  0.03990406  1  -1.169855  0  -0.22799  -0.021186  0  3.668977  0
N  N178  1  0.55080165  0.92747143  0.96009495  1  -1.168934  0  -0.228047  -0.021083  0  3.66903  0
N  N179  1  0.05079397  0.07252474  0.53990587  1  -1.169896  0  -0.228083  -0.0213  0  3.669231  0
N  N180  1  0.34113018  0.67102394  0.39676114  1  -1.198857  0  -0.234364  -0.026915  0  3.700875  0
N  N181  1  0.84113257  0.32897340  0.10323931  1  -1.198832  0  -0.234369  -0.026963  0  3.70105  0
N  N182  1  0.65886911  0.82896941  0.89676123  1  -1.198844  0  -0.234457  -0.027195  0  3.70101  0
N  N183  1  0.15886959  0.17102628  0.60323993  1  -1.19885  0  -0.234398  -0.027153  0  3.701016  0
