# generated using pymatgen
data_Cu3H21WC27S3BrN7O
_symmetry_space_group_name_H-M   'P 1'
_cell_length_a   9.25854565
_cell_length_b   19.36184460
_cell_length_c   23.85332129
_cell_angle_alpha   85.73542570
_cell_angle_beta   78.79459896
_cell_angle_gamma   76.15650910
_symmetry_Int_Tables_number   1
_chemical_formula_structural   Cu3H21WC27S3BrN7O
_chemical_formula_sum   'Cu12 H84 W4 C108 S12 Br4 N28 O4'
_cell_volume   4070.91127682
_cell_formula_units_Z   4
loop_
 _symmetry_equiv_pos_site_id
 _symmetry_equiv_pos_as_xyz
  1  'x, y, z'
loop_
 _atom_site_type_symbol
 _atom_site_label
 _atom_site_symmetry_multiplicity
 _atom_site_fract_x
 _atom_site_fract_y
 _atom_site_fract_z
 _atom_site_occupancy
 _atom_site_pbe_bader_charge
 _atom_site_pbe_bader_spin_density
 _atom_site_pbe_cm5_charge
 _atom_site_pbe_ddec_charge
 _atom_site_pbe_ddec_spin_density
 _atom_site_pbe_ddec_sum_bond_order
 _atom_site_pbe_magmom
Cu  Cu0  1  0.14823890  0.23887708  0.45708896  1  0.461308  0  0.297766  0.331319  0  2.776716  0
Cu  Cu1  1  0.34448985  0.26090533  0.04278351  1  0.457459  0  0.297715  0.330761  0  2.776971  0
Cu  Cu2  1  0.85175813  0.76112283  0.54291348  1  0.461233  0  0.297742  0.331286  0  2.77681  0
Cu  Cu3  1  0.65551729  0.73909785  0.95721485  1  0.457352  0  0.297743  0.330816  0  2.777005  0
Cu  Cu4  1  0.13464820  0.09625564  0.37246917  1  0.584712  0  0.446094  0.319904  0  2.855347  0
Cu  Cu5  1  0.10342063  0.40363708  0.12740324  1  0.58539  0  0.445917  0.320608  0  2.855853  0
Cu  Cu6  1  0.86534489  0.90374326  0.62753111  1  0.584584  0  0.446098  0.319903  0  2.855354  0
Cu  Cu7  1  0.89657453  0.59636186  0.87259494  1  0.585467  0  0.445929  0.320641  0  2.855818  0
Cu  Cu8  1  0.04550339  0.26965932  0.31843250  1  0.548898  0  0.416271  0.379467  0  2.660728  0
Cu  Cu9  1  0.13346336  0.23014526  0.18145763  1  0.549582  0  0.415205  0.377269  0  2.66106  0
Cu  Cu10  1  0.95448914  0.73033685  0.68157083  1  0.548859  0  0.416281  0.379463  0  2.66076  0
Cu  Cu11  1  0.86653952  0.76985051  0.81853882  1  0.549624  0  0.41521  0.377212  0  2.661066  0
H  H12  1  0.00224137  0.02817591  0.80710047  1  0.038525  0  0.107755  0.111885  0  1.000576  0
H  H13  1  0.33757135  0.47212389  0.69290775  1  0.048351  0  0.107527  0.111636  0  1.000959  0
H  H14  1  0.99776478  0.97182515  0.19289776  1  0.038691  0  0.107729  0.111821  0  1.000496  0
H  H15  1  0.66241980  0.52788077  0.30709707  1  0.048731  0  0.10753  0.111668  0  1.000965  0
H  H16  1  0.06693992  0.13852917  0.76165942  1  0.083713  0  0.10288  0.111678  0  1.018705  0
H  H17  1  0.46747711  0.36185261  0.73836594  1  0.082367  0  0.103249  0.111566  0  1.018582  0
H  H18  1  0.93305257  0.86147347  0.23833955  1  0.083613  0  0.1029  0.11168  0  1.018743  0
H  H19  1  0.53251691  0.63815206  0.26163821  1  0.082203  0  0.103261  0.111527  0  1.018609  0
H  H20  1  0.49990393  0.01624875  0.67914100  1  0.076259  0  0.102057  0.106996  0  1.029764  0
H  H21  1  0.69565032  0.48432406  0.82063948  1  0.074473  0  0.102139  0.106683  0  1.029612  0
H  H22  1  0.50008879  0.98375115  0.32086245  1  0.076163  0  0.10203  0.106953  0  1.029703  0
H  H23  1  0.30436568  0.51567706  0.17935546  1  0.074563  0  0.102142  0.106656  0  1.029601  0
H  H24  1  0.43098674  0.90567312  0.72197105  1  0.129697  0  0.102547  0.120158  0  1.056603  0
H  H25  1  0.55881450  0.59482920  0.77775122  1  0.141981  0  0.102955  0.120032  0  1.056815  0
H  H26  1  0.56901341  0.09432471  0.27802932  1  0.129801  0  0.102544  0.120135  0  1.056624  0
H  H27  1  0.44120917  0.40517458  0.22224351  1  0.142241  0  0.10297  0.120021  0  1.056822  0
H  H28  1  0.93632698  0.92065339  0.78109346  1  0.138956  0  0.127787  0.102038  0  1.006144  0
H  H29  1  0.13808207  0.57959877  0.71892173  1  0.124676  0  0.12892  0.103921  0  1.005573  0
H  H30  1  0.06367407  0.07934333  0.21890876  1  0.138863  0  0.127819  0.101961  0  1.006158  0
H  H31  1  0.86192661  0.42039961  0.28107753  1  0.124627  0  0.12896  0.10391  0  1.005634  0
H  H32  1  0.21411932  0.73020526  0.83423271  1  0.150299  0  0.114299  0.117206  0  1.037936  0
H  H33  1  0.27805952  0.77010884  0.66559017  1  0.144459  0  0.114355  0.116828  0  1.038482  0
H  H34  1  0.78589064  0.26979101  0.16576523  1  0.150401  0  0.114307  0.117208  0  1.037844  0
H  H35  1  0.72192325  0.22989640  0.33441173  1  0.144434  0  0.114345  0.11681  0  1.038466  0
H  H36  1  0.90181029  0.15598565  0.49406786  1  0.149133  0  0.122046  0.087282  0  1.050766  0
H  H37  1  0.05190538  0.34398537  0.00600255  1  0.149042  0  0.122115  0.08785  0  1.051254  0
H  H38  1  0.09818585  0.84401541  0.50593047  1  0.149287  0  0.122037  0.087293  0  1.050761  0
H  H39  1  0.94809634  0.65600769  0.99399645  1  0.148882  0  0.122137  0.087884  0  1.051022  0
H  H40  1  0.81403312  0.09441834  0.34043213  1  0.125405  0  0.113669  0.10912  0  1.015494  0
H  H41  1  0.74844939  0.40545935  0.15962226  1  0.130927  0  0.113463  0.10893  0  1.01716  0
H  H42  1  0.18595575  0.90557786  0.65957045  1  0.125413  0  0.113662  0.109053  0  1.01556  0
H  H43  1  0.25154732  0.59453851  0.84037602  1  0.130826  0  0.113436  0.108886  0  1.017227  0
H  H44  1  0.55365007  0.10659228  0.42281923  1  0.16193  0  0.105583  0.117317  0  1.079021  0
H  H45  1  0.58290959  0.39330360  0.07716239  1  0.12736  0  0.10533  0.116181  0  1.078939  0
H  H46  1  0.44633828  0.89341028  0.57718394  1  0.162005  0  0.105585  0.117356  0  1.078921  0
H  H47  1  0.41709653  0.60668684  0.92283463  1  0.127274  0  0.105308  0.116201  0  1.078998  0
H  H48  1  0.48010385  0.06431091  0.51057393  1  0.090747  0  0.1003  0.115354  0  1.01746  0
H  H49  1  0.55515551  0.43588488  0.98944202  1  0.086171  0  0.100274  0.11435  0  1.018467  0
H  H50  1  0.51989411  0.93568855  0.48942450  1  0.090881  0  0.100327  0.11536  0  1.017471  0
H  H51  1  0.44485745  0.56410447  0.01055642  1  0.08592  0  0.100307  0.114409  0  1.018317  0
H  H52  1  0.69681418  0.21907597  0.55913418  1  0.094527  0  0.105666  0.115183  0  1.00876  0
H  H53  1  0.97498640  0.28087195  0.94081322  1  0.097905  0  0.106228  0.115698  0  1.009823  0
H  H54  1  0.30317534  0.78092930  0.44086645  1  0.09461  0  0.105685  0.11522  0  1.008744  0
H  H55  1  0.02501981  0.71912329  0.05918349  1  0.097932  0  0.106227  0.115723  0  1.009827  0
H  H56  1  0.53535580  0.22360888  0.65498829  1  0.059965  0  0.101918  0.109907  0  1.0158  0
H  H57  1  0.91407643  0.27657709  0.84493430  1  0.065657  0  0.10237  0.110377  0  1.01633  0
H  H58  1  0.46463885  0.77639209  0.34501490  1  0.059248  0  0.101901  0.109956  0  1.015809  0
H  H59  1  0.08592723  0.72342452  0.15506283  1  0.06574  0  0.102382  0.110392  0  1.016313  0
H  H60  1  0.31061935  0.07348881  0.60443684  1  0.087146  0  0.104748  0.112476  0  1.010531  0
H  H61  1  0.48896517  0.42700090  0.89549905  1  0.054645  0  0.104836  0.113013  0  1.01011  0
H  H62  1  0.68937892  0.92651703  0.39556134  1  0.086968  0  0.104723  0.112454  0  1.010594  0
H  H63  1  0.51104664  0.57299696  0.10449954  1  0.054749  0  0.104898  0.113141  0  1.009968  0
H  H64  1  0.10426120  0.48313814  0.94151259  1  0.084953  0  0.119098  0.117253  0  0.998513  0
H  H65  1  0.02873197  0.01695990  0.55859925  1  0.104162  0  0.119489  0.117335  0  0.998226  0
H  H66  1  0.89573484  0.51686182  0.05848751  1  0.084957  0  0.11909  0.117244  0  0.998508  0
H  H67  1  0.97125871  0.98304060  0.44140043  1  0.104105  0  0.119503  0.117391  0  0.998192  0
H  H68  1  0.97597063  0.46337562  0.78442404  1  0.132883  0  0.135463  0.101574  0  0.997107  0
H  H69  1  0.72377338  0.03673598  0.71578259  1  0.137394  0  0.135891  0.102224  0  0.99897  0
H  H70  1  0.02402684  0.53662061  0.21557652  1  0.133043  0  0.135457  0.101556  0  0.997101  0
H  H71  1  0.27623401  0.96326077  0.28421878  1  0.13742  0  0.135915  0.102293  0  0.998921  0
H  H72  1  0.26004022  0.35214582  0.89806685  1  0.170888  0  0.112118  0.123207  0  1.055459  0
H  H73  1  0.00999650  0.14796478  0.60201357  1  0.168397  0  0.112695  0.123733  0  1.056753  0
H  H74  1  0.73995741  0.64785625  0.10193389  1  0.170849  0  0.112144  0.123277  0  1.05539  0
H  H75  1  0.98999575  0.85203470  0.39798395  1  0.1683  0  0.112721  0.123794  0  1.056737  0
H  H76  1  0.12262176  0.38860617  0.71626588  1  0.059002  0  0.108556  0.112792  0  0.995863  0
H  H77  1  0.72734139  0.11178914  0.78396572  1  0.057671  0  0.108243  0.113121  0  0.996652  0
H  H78  1  0.87738210  0.61139483  0.28373578  1  0.059345  0  0.108527  0.112747  0  0.995894  0
H  H79  1  0.27267628  0.88820864  0.21603697  1  0.057742  0  0.108207  0.113076  0  0.996762  0
H  H80  1  0.26145250  0.25868346  0.86070239  1  0.129591  0  0.089423  0.119358  0  1.072205  0
H  H81  1  0.88036507  0.24136034  0.63922055  1  0.097363  0  0.089581  0.118699  0  1.07238  0
H  H82  1  0.73854614  0.74131705  0.13929703  1  0.129465  0  0.08942  0.11936  0  1.072177  0
H  H83  1  0.11961387  0.75864281  0.36077961  1  0.097311  0  0.089618  0.118793  0  1.072256  0
H  H84  1  0.34653500  0.15440570  0.80050942  1  0.057357  0  0.10999  0.123111  0  0.983447  0
H  H85  1  0.80138355  0.34578608  0.69922005  1  0.086265  0  0.110348  0.122282  0  0.983375  0
H  H86  1  0.65346806  0.84559375  0.19948942  1  0.057368  0  0.109992  0.123153  0  0.9834  0
H  H87  1  0.19860037  0.65421873  0.30077649  1  0.086424  0  0.110354  0.122185  0  0.983472  0
H  H88  1  0.20190618  0.28231347  0.65674152  1  0.083563  0  0.106395  0.125129  0  1.002069  0
H  H89  1  0.64109362  0.21821076  0.84332358  1  0.11798  0  0.105877  0.125206  0  1.001318  0
H  H90  1  0.79809496  0.71769022  0.34325819  1  0.083549  0  0.106432  0.125178  0  1.001992  0
H  H91  1  0.35892919  0.78178863  0.15667866  1  0.117977  0  0.105876  0.125203  0  1.001375  0
H  H92  1  0.38549521  0.83039830  0.80557714  1  0.163872  0  0.122089  0.12843  0  1.026445  0
H  H93  1  0.52125537  0.67002792  0.69417396  1  0.151807  0  0.12153  0.127536  0  1.027902  0
H  H94  1  0.61450864  0.16960113  0.19442311  1  0.163923  0  0.122104  0.12845  0  1.026394  0
H  H95  1  0.47873907  0.32998266  0.30582676  1  0.151755  0  0.121602  0.127715  0  1.027651  0
W  W96  1  0.29410945  0.19718100  0.35399178  1  1.830511  0  0.994508  1.07271  0  5.606301  0
W  W97  1  0.34514761  0.30262211  0.14587561  1  1.82883  0  0.994597  1.072872  0  5.60297  0
W  W98  1  0.70588070  0.80281840  0.64601009  1  1.830492  0  0.994583  1.07291  0  5.606358  0
W  W99  1  0.65485431  0.69737841  0.85412271  1  1.82898  0  0.994582  1.072877  0  5.603076  0
C  C100  1  0.28782777  0.08536332  0.71726697  1  0.330359  0  0.091425  0.172928  0  4.038721  0
C  C101  1  0.59085375  0.41511157  0.78261788  1  0.336921  0  0.090742  0.171924  0  4.040446  0
C  C102  1  0.71217538  0.91463659  0.28273597  1  0.330099  0  0.09156  0.173142  0  4.038703  0
C  C103  1  0.40915619  0.58489214  0.21738072  1  0.337042  0  0.090794  0.171873  0  4.040252  0
C  C104  1  0.11045980  0.02557256  0.77843852  1  -0.005016  0  -0.094172  -0.160481  0  4.0182  0
C  C105  1  0.41460083  0.47479623  0.72150592  1  0.008704  0  -0.092412  -0.158296  0  4.016368  0
C  C106  1  0.88953630  0.97442748  0.22155705  1  -0.005284  0  -0.094144  -0.160388  0  4.01787  0
C  C107  1  0.58540665  0.52520747  0.27849294  1  0.008133  0  -0.092355  -0.158315  0  4.016405  0
C  C108  1  0.14744741  0.08764177  0.75333562  1  -0.025001  0  -0.095869  -0.158569  0  3.99866  0
C  C109  1  0.48867972  0.41277096  0.74664058  1  -0.023545  0  -0.096087  -0.158501  0  3.999849  0
C  C110  1  0.85255241  0.91235868  0.24666706  1  -0.0247  0  -0.095903  -0.158603  0  3.998681  0
C  C111  1  0.51131585  0.58723264  0.25336365  1  -0.023581  0  -0.096167  -0.158478  0  3.999842  0
C  C112  1  0.39097658  0.01928927  0.70740642  1  -0.080453  0  -0.096649  -0.165558  0  3.991723  0
C  C113  1  0.61815863  0.48120437  0.79235796  1  -0.016761  0  -0.096423  -0.165112  0  3.990663  0
C  C114  1  0.60902078  0.98070960  0.29259511  1  -0.080422  0  -0.096654  -0.16562  0  3.991672  0
C  C115  1  0.38186054  0.51879941  0.20763686  1  -0.01589  0  -0.096441  -0.165078  0  3.990386  0
C  C116  1  0.21265299  0.96001369  0.76701483  1  0.268718  0  0.08757  0.151541  0  4.030223  0
C  C117  1  0.43977625  0.54037625  0.73286636  1  0.285541  0  0.086072  0.148806  0  4.033413  0
C  C118  1  0.78734758  0.03998571  0.23298653  1  0.268851  0  0.087593  0.151538  0  4.030266  0
C  C119  1  0.56023565  0.45963014  0.26713112  1  0.285543  0  0.08618  0.149024  0  4.032985  0
C  C120  1  0.35342540  0.95703447  0.73179138  1  0.068313  0  -0.090573  -0.145166  0  3.977443  0
C  C121  1  0.54248710  0.54343326  0.76798506  1  -0.040922  0  -0.091319  -0.145075  0  3.979947  0
C  C122  1  0.64657876  0.04296386  0.26821023  1  0.068277  0  -0.090599  -0.145072  0  3.9775  0
C  C123  1  0.45751971  0.45657097  0.23201421  1  -0.041959  0  -0.091367  -0.145056  0  3.979573  0
C  C124  1  0.03191080  0.88245124  0.79339068  1  0.952667  0  0.132412  0.092928  0  3.886281  0
C  C125  1  0.20765615  0.61783854  0.70657372  1  0.971615  0  0.130013  0.088132  0  3.889807  0
C  C126  1  0.96809226  0.11754605  0.20661036  1  0.952645  0  0.132468  0.093172  0  3.886039  0
C  C127  1  0.79234819  0.38216195  0.29342661  1  0.971668  0  0.130078  0.088358  0  3.889839  0
C  C128  1  0.18027916  0.78480377  0.81939157  1  0.374241  0  -0.000883  -0.019548  0  3.946905  0
C  C129  1  0.28414526  0.71551057  0.68045707  1  0.38801  0  -0.001013  -0.019161  0  3.946697  0
C  C130  1  0.81972302  0.21519249  0.18060755  1  0.374791  0  -0.000923  -0.019571  0  3.947112  0
C  C131  1  0.71584203  0.28449472  0.31954247  1  0.388418  0  -0.001179  -0.019296  0  3.946866  0
C  C132  1  0.84478322  0.14071038  0.46293284  1  0.927924  0  0.134899  0.08958  0  3.901854  0
C  C133  1  0.94835580  0.35927122  0.03710275  1  0.926383  0  0.134284  0.088272  0  3.901638  0
C  C134  1  0.15521500  0.85929012  0.53706699  1  0.927749  0  0.134914  0.089678  0  3.902025  0
C  C135  1  0.05164898  0.64072341  0.96289790  1  0.926478  0  0.13429  0.088305  0  3.901209  0
C  C136  1  0.79415961  0.10879583  0.38476916  1  0.365233  0  -0.008424  -0.030923  0  4.012131  0
C  C137  1  0.78746038  0.39116478  0.11527132  1  0.41356  0  -0.007575  -0.031573  0  4.013374  0
C  C138  1  0.20583390  0.89120091  0.61523291  1  0.365263  0  -0.008425  -0.030774  0  4.012396  0
C  C139  1  0.21254241  0.60883363  0.88472610  1  0.413739  0  -0.007535  -0.031462  0  4.013191  0
C  C140  1  0.66536196  0.11305690  0.42517370  1  0.285066  0  -0.00169  -0.096826  0  3.901762  0
C  C141  1  0.70343420  0.38690291  0.07484757  1  0.276615  0  -0.001924  -0.093158  0  3.900038  0
C  C142  1  0.33462544  0.88694141  0.57482927  1  0.285032  0  -0.001689  -0.096888  0  3.902008  0
C  C143  1  0.29657726  0.61308852  0.92515353  1  0.276781  0  -0.001972  -0.093195  0  3.900104  0
C  C144  1  0.60052355  0.14037653  0.52896202  1  0.29948  0  0.086815  0.156092  0  4.013958  0
C  C145  1  0.76999895  0.35974168  0.97101804  1  0.302443  0  0.086961  0.15613  0  4.015805  0
C  C146  1  0.39947080  0.85962553  0.47103982  1  0.299507  0  0.086871  0.155999  0  4.014078  0
C  C147  1  0.23001209  0.64024818  0.02898207  1  0.302911  0  0.086938  0.156313  0  4.015505  0
C  C148  1  0.49143329  0.09972031  0.54199560  1  0.015592  0  -0.09166  -0.140183  0  3.988256  0
C  C149  1  0.63342044  0.40053889  0.95797108  1  -0.023201  0  -0.092615  -0.139306  0  3.991901  0
C  C150  1  0.50856633  0.90028075  0.45800255  1  0.0155  0  -0.091674  -0.14007  0  3.988218  0
C  C151  1  0.36659098  0.59945309  0.04202867  1  -0.023394  0  -0.09273  -0.139495  0  3.991809  0
C  C152  1  0.61398467  0.18619023  0.56933542  1  -0.011142  0  -0.087781  -0.146563  0  3.982033  0
C  C153  1  0.86958830  0.31390528  0.93062123  1  0.015206  0  -0.088879  -0.147603  0  3.984903  0
C  C154  1  0.38600572  0.81381450  0.43066571  1  -0.011305  0  -0.087866  -0.146626  0  3.981856  0
C  C155  1  0.13041455  0.68609045  0.06937748  1  0.014912  0  -0.088862  -0.147686  0  3.984654  0
C  C156  1  0.52173896  0.18933738  0.62308061  1  0.057106  0  -0.097916  -0.161859  0  3.990745  0
C  C157  1  0.83439748  0.31091453  0.87683765  1  -0.033141  0  -0.097677  -0.162001  0  3.993064  0
C  C158  1  0.47824787  0.81066846  0.37691801  1  0.058137  0  -0.097912  -0.161937  0  3.990534  0
C  C159  1  0.16560734  0.68908388  0.12315994  1  -0.033575  0  -0.097646  -0.161963  0  3.993058  0
C  C160  1  0.39649634  0.10466044  0.59489764  1  -0.053561  0  -0.094808  -0.154574  0  3.993571  0
C  C161  1  0.59636501  0.39569388  0.90504767  1  -0.024308  0  -0.09326  -0.15425  0  3.992941  0
C  C162  1  0.60350914  0.89533898  0.40510320  1  -0.053476  0  -0.094806  -0.154611  0  3.993533  0
C  C163  1  0.40364423  0.60430131  0.09495154  1  -0.024505  0  -0.09331  -0.154432  0  3.992881  0
C  C164  1  0.41273329  0.14832150  0.63660751  1  0.269615  0  0.094086  0.174823  0  4.040694  0
C  C165  1  0.69801827  0.35205858  0.86329952  1  0.371542  0  0.090359  0.173098  0  4.043783  0
C  C166  1  0.58726312  0.85168059  0.36339222  1  0.269483  0  0.094114  0.174911  0  4.040438  0
C  C167  1  0.30198750  0.64794034  0.13669907  1  0.372129  0  0.090411  0.173242  0  4.043718  0
C  C168  1  0.27959034  0.21091250  0.72456714  1  0.328042  0  0.092042  0.170304  0  4.045032  0
C  C169  1  0.71531211  0.28948717  0.77536569  1  0.289493  0  0.090666  0.169873  0  4.045334  0
C  C170  1  0.72040567  0.78908959  0.27543302  1  0.328299  0  0.092033  0.170274  0  4.044956  0
C  C171  1  0.28469820  0.71051277  0.22463556  1  0.289364  0  0.090687  0.170051  0  4.045271  0
C  C172  1  0.10022237  0.45948521  0.90222679  1  0.444859  0  -0.002344  -0.029817  0  3.988821  0
C  C173  1  0.96179630  0.04060877  0.59790904  1  0.429698  0  -0.002494  -0.029406  0  3.98577  0
C  C174  1  0.89977413  0.54051421  0.09777423  1  0.444851  0  -0.002324  -0.029706  0  3.988826  0
C  C175  1  0.03820548  0.95938905  0.40209191  1  0.429989  0  -0.002576  -0.029609  0  3.985848  0
C  C176  1  0.03219431  0.45218979  0.82099225  1  0.959975  0  0.136409  0.084449  0  3.903579  0
C  C177  1  0.80540075  0.04791882  0.67920938  1  0.94381  0  0.13506  0.082897  0  3.905378  0
C  C178  1  0.96780165  0.54781068  0.17900877  1  0.9598  0  0.136339  0.084425  0  3.903361  0
C  C179  1  0.19459698  0.95208061  0.32079038  1  0.943797  0  0.135037  0.082792  0  3.905458  0
C  C180  1  0.17934636  0.39477024  0.88087717  1  0.251058  0  0.002662  -0.093038  0  3.893067  0
C  C181  1  0.95483282  0.10532627  0.61923546  1  0.24443  0  0.001607  -0.094256  0  3.893579  0
C  C182  1  0.82065039  0.60522864  0.11912386  1  0.251084  0  0.002591  -0.093278  0  3.893088  0
C  C183  1  0.04516446  0.89467155  0.38076558  1  0.244145  0  0.001623  -0.094205  0  3.893413  0
C  C184  1  0.18497746  0.33099208  0.79286817  1  0.276995  0  0.086368  0.14593  0  4.040853  0
C  C185  1  0.80858646  0.16920988  0.70723152  1  0.288425  0  0.086942  0.145709  0  4.040561  0
C  C186  1  0.81502299  0.66900840  0.20713275  1  0.277049  0  0.08637  0.145924  0  4.040806  0
C  C187  1  0.19140380  0.83079279  0.29276638  1  0.287632  0  0.086889  0.145686  0  4.040315  0
C  C188  1  0.17061390  0.33729378  0.73516829  1  -0.044614  0  -0.093757  -0.162744  0  4.009955  0
C  C189  1  0.74305206  0.16304025  0.76497229  1  -0.031731  0  -0.093989  -0.163787  0  4.010114  0
C  C190  1  0.82938966  0.66270831  0.26483202  1  -0.044936  0  -0.093751  -0.162734  0  4.01  0
C  C191  1  0.25693820  0.83695867  0.23502640  1  -0.030817  0  -0.093885  -0.163654  0  4.010355  0
C  C192  1  0.24857741  0.26478729  0.81599510  1  -0.043995  0  -0.093728  -0.149268  0  3.97631  0
C  C193  1  0.82887769  0.23538989  0.68394724  1  -0.012644  0  -0.093658  -0.14815  0  3.975957  0
C  C194  1  0.75141439  0.73521214  0.18400509  1  -0.043944  0  -0.093707  -0.149262  0  3.976271  0
C  C195  1  0.17111880  0.76460953  0.31605378  1  -0.012651  0  -0.093703  -0.148339  0  3.975871  0
C  C196  1  0.29694680  0.20567550  0.78195912  1  0.015464  0  -0.089858  -0.153315  0  3.990106  0
C  C197  1  0.78432233  0.29459539  0.71788229  1  0.022248  0  -0.090459  -0.152458  0  3.991301  0
C  C198  1  0.70304904  0.79432447  0.21804005  1  0.015425  0  -0.08989  -0.153371  0  3.990006  0
C  C199  1  0.21568360  0.70540721  0.28211868  1  0.022203  0  -0.090412  -0.152309  0  3.991462  0
C  C200  1  0.21639260  0.27753433  0.70129640  1  0.030716  0  -0.088167  -0.149837  0  3.970349  0
C  C201  1  0.69547332  0.22290085  0.79875793  1  -0.020213  0  -0.087048  -0.149191  0  3.965801  0
C  C202  1  0.78360257  0.72246774  0.29870459  1  0.030636  0  -0.088241  -0.149879  0  3.970215  0
C  C203  1  0.30452922  0.77710124  0.20124230  1  -0.020519  0  -0.087099  -0.149321  0  3.96603  0
C  C204  1  0.26723089  0.83388941  0.80529856  1  0.316801  0  0.009739  -0.07368  0  3.87428  0
C  C205  1  0.40621927  0.66646657  0.69449858  1  0.325607  0  0.011389  -0.073141  0  3.872127  0
C  C206  1  0.73277402  0.16610789  0.19470172  1  0.316273  0  0.009771  -0.073584  0  3.874429  0
C  C207  1  0.59376920  0.33354240  0.30550342  1  0.325367  0  0.011385  -0.073214  0  3.871812  0
S  S208  1  0.26613852  0.12602531  0.43463558  1  -0.736216  0  -0.436787  -0.54259  0  2.838834  0
S  S209  1  0.32693776  0.37378162  0.06522302  1  -0.735108  0  -0.436391  -0.54225  0  2.837399  0
S  S210  1  0.73385470  0.87397409  0.56536653  1  -0.735887  0  -0.436842  -0.542671  0  2.839064  0
S  S211  1  0.67305685  0.62622207  0.93477661  1  -0.735163  0  -0.436398  -0.542234  0  2.837435  0
S  S212  1  0.17904752  0.16032423  0.28919312  1  -0.747048  0  -0.448749  -0.588304  0  2.994962  0
S  S213  1  0.12835065  0.33951095  0.21068914  1  -0.748429  0  -0.448894  -0.588994  0  2.994579  0
S  S214  1  0.82094603  0.83967411  0.71080809  1  -0.747043  0  -0.448783  -0.58836  0  2.994832  0
S  S215  1  0.87164820  0.66048427  0.78930833  1  -0.748572  0  -0.448884  -0.588978  0  2.994559  0
S  S216  1  0.16698628  0.31028205  0.37824127  1  -0.691235  0  -0.434337  -0.502511  0  2.702402  0
S  S217  1  0.35543889  0.18952209  0.12162145  1  -0.690241  0  -0.434415  -0.501658  0  2.701478  0
S  S218  1  0.83300756  0.68971737  0.62175909  1  -0.691284  0  -0.434315  -0.502489  0  2.702389  0
S  S219  1  0.64456367  0.81047846  0.87837511  1  -0.690196  0  -0.43445  -0.501702  0  2.70157  0
Br  Br220  1  0.02958015  0.27743668  0.54683222  1  -0.605444  0  -0.356992  -0.492476  0  1.308233  0
Br  Br221  1  0.35512433  0.22243589  0.95292601  1  -0.604787  0  -0.357221  -0.492391  0  1.30777  0
Br  Br222  1  0.97043040  0.72256269  0.45317130  1  -0.605465  0  -0.35697  -0.492462  0  1.308223  0
Br  Br223  1  0.64490946  0.77757863  0.04706305  1  -0.604666  0  -0.357204  -0.492373  0  1.307766  0
N  N224  1  0.90519938  0.12587833  0.40871950  1  -1.218518  0  -0.378155  -0.278746  0  3.636327  0
N  N225  1  0.93960118  0.37406092  0.09132395  1  -1.224167  0  -0.379082  -0.278261  0  3.63453  0
N  N226  1  0.09479374  0.87411843  0.59128073  1  -1.218536  0  -0.378127  -0.278841  0  3.636477  0
N  N227  1  0.06039893  0.62593746  0.90867507  1  -1.22432  0  -0.379119  -0.278364  0  3.634361  0
N  N228  1  0.69827696  0.13346919  0.47489579  1  -1.242388  0  -0.224109  0.017699  0  3.788544  0
N  N229  1  0.80661670  0.36649999  0.02512500  1  -1.243977  0  -0.221871  0.016562  0  3.784584  0
N  N230  1  0.30171686  0.86653393  0.52510603  1  -1.242511  0  -0.224086  0.017705  0  3.788802  0
N  N231  1  0.19339106  0.63348984  0.97487621  1  -1.24388  0  -0.221761  0.016494  0  3.784804  0
N  N232  1  0.32306999  0.14896365  0.69172975  1  -1.20205  0  -0.256695  -0.154955  0  3.68415  0
N  N233  1  0.66436657  0.35151050  0.80813450  1  -1.210505  0  -0.254175  -0.154724  0  3.684278  0
N  N234  1  0.67692125  0.85103740  0.30826908  1  -1.202207  0  -0.256785  -0.155154  0  3.684466  0
N  N235  1  0.33563899  0.64849214  0.19186463  1  -1.210329  0  -0.254293  -0.154893  0  3.684367  0
N  N236  1  0.00891287  0.49494790  0.86459901  1  -1.214123  0  -0.383827  -0.243823  0  3.673994  0
N  N237  1  0.86840943  0.00514420  0.63559399  1  -1.200913  0  -0.383121  -0.242866  0  3.671337  0
N  N238  1  0.99108320  0.50505150  0.13540243  1  -1.21406  0  -0.383839  -0.243867  0  3.673945  0
N  N239  1  0.13159046  0.99485416  0.36440637  1  -1.200875  0  -0.383082  -0.242786  0  3.671384  0
N  N240  1  0.13563182  0.39049455  0.82894541  1  -1.245618  0  -0.225072  0.009699  0  3.808744  0
N  N241  1  0.85498444  0.10962512  0.67120946  1  -1.244098  0  -0.224517  0.010489  0  3.803707  0
N  N242  1  0.86436441  0.60950539  0.17105560  1  -1.245679  0  -0.224885  0.009932  0  3.808416  0
N  N243  1  0.14501421  0.89037538  0.32878996  1  -1.243989  0  -0.224491  0.010517  0  3.803662  0
N  N244  1  0.03409505  0.81555707  0.81146412  1  -1.204298  0  -0.39147  -0.234179  0  3.685565  0
N  N245  1  0.16084841  0.68470786  0.68848408  1  -1.218649  0  -0.392586  -0.235349  0  3.688369  0
N  N246  1  0.96590770  0.18443974  0.18853416  1  -1.204245  0  -0.391525  -0.234362  0  3.685483  0
N  N247  1  0.83914483  0.31529157  0.31151578  1  -1.21891  0  -0.392619  -0.235372  0  3.68826  0
N  N248  1  0.17182856  0.89576115  0.78904224  1  -1.256165  0  -0.224699  0.010122  0  3.805626  0
N  N249  1  0.35656428  0.60458992  0.71085199  1  -1.259762  0  -0.223452  0.015726  0  3.804777  0
N  N250  1  0.82817307  0.10423769  0.21096054  1  -1.256224  0  -0.224733  0.009982  0  3.805947  0
N  N251  1  0.64344174  0.39541374  0.28914947  1  -1.259558  0  -0.22351  0.015355  0  3.804728  0
O  O252  1  0.48496410  0.19210657  0.32582633  1  -0.90501  0  -0.533772  -0.536858  0  1.952586  0
O  O253  1  0.50275706  0.30767989  0.17401532  1  -0.903558  0  -0.532937  -0.535949  0  1.951356  0
O  O254  1  0.51502836  0.80789229  0.67417571  1  -0.905117  0  -0.533794  -0.53695  0  1.952805  0
O  O255  1  0.49724027  0.69232327  0.82598406  1  -0.903595  0  -0.532937  -0.53598  0  1.951369  0
