# generated using pymatgen
data_FeAg2H10(C8N5)2
_symmetry_space_group_name_H-M   'P 1'
_cell_length_a   10.10546490
_cell_length_b   10.15093721
_cell_length_c   29.91593436
_cell_angle_alpha   90.00090155
_cell_angle_beta   89.99438768
_cell_angle_gamma   101.09681536
_symmetry_Int_Tables_number   1
_chemical_formula_structural   FeAg2H10(C8N5)2
_chemical_formula_sum   'Fe4 Ag8 H40 C64 N40'
_cell_volume   3011.39896027
_cell_formula_units_Z   4
loop_
 _symmetry_equiv_pos_site_id
 _symmetry_equiv_pos_as_xyz
  1  'x, y, z'
loop_
 _atom_site_type_symbol
 _atom_site_label
 _atom_site_symmetry_multiplicity
 _atom_site_fract_x
 _atom_site_fract_y
 _atom_site_fract_z
 _atom_site_occupancy
 _atom_site_pbe_bader_charge
 _atom_site_pbe_bader_spin_density
 _atom_site_pbe_cm5_charge
 _atom_site_pbe_ddec_charge
 _atom_site_pbe_ddec_spin_density
 _atom_site_pbe_ddec_sum_bond_order
 _atom_site_pbe_magmom
Fe  Fe0  1  0.76287212  0.23663130  0.05877966  1  1.240457  0  0.819947  0.566438  0  3.754475  0
Fe  Fe1  1  0.73711327  0.26338917  0.55878159  1  1.240127  0  0.819967  0.566714  0  3.754297  0
Fe  Fe2  1  0.23713804  0.76337379  0.94122183  1  1.240359  0  0.819872  0.56651  0  3.754378  0
Fe  Fe3  1  0.26287690  0.73661013  0.44121890  1  1.240306  0  0.819957  0.566721  0  3.754268  0
Ag  Ag4  1  0.76802809  0.73766099  0.05036829  1  0.39604  0  0.30741  0.159248  0  2.45468  0
Ag  Ag5  1  0.73191267  0.76235248  0.55035701  1  0.396143  0  0.307494  0.159336  0  2.454678  0
Ag  Ag6  1  0.23196944  0.26234527  0.94963521  1  0.396081  0  0.307422  0.159174  0  2.454624  0
Ag  Ag7  1  0.26806899  0.23764391  0.44963512  1  0.396129  0  0.307537  0.159372  0  2.454761  0
Ag  Ag8  1  0.26332127  0.23977970  0.05047636  1  0.383265  0  0.306345  0.149984  0  2.473055  0
Ag  Ag9  1  0.23667088  0.26024762  0.55048029  1  0.383267  0  0.30635  0.149883  0  2.473236  0
Ag  Ag10  1  0.73668876  0.76021030  0.94952180  1  0.383466  0  0.306281  0.149769  0  2.472855  0
Ag  Ag11  1  0.76331723  0.73974164  0.44951352  1  0.383382  0  0.306323  0.149897  0  2.473185  0
H  H12  1  0.82346257  0.43885967  0.30301691  1  0.439138  0  0.31835  0.280843  0  0.931661  0
H  H13  1  0.67654060  0.06115188  0.80301514  1  0.439244  0  0.318367  0.280934  0  0.931424  0
H  H14  1  0.17653122  0.56114764  0.69698960  1  0.43912  0  0.318376  0.280826  0  0.931668  0
H  H15  1  0.32346006  0.93885031  0.19698135  1  0.439221  0  0.31837  0.280923  0  0.931571  0
H  H16  1  0.88690358  0.31959970  0.32864604  1  0.433277  0  0.318862  0.283478  0  0.935923  0
H  H17  1  0.61309915  0.18039749  0.82865601  1  0.433414  0  0.318771  0.283377  0  0.93595  0
H  H18  1  0.11309465  0.68039547  0.67135111  1  0.433249  0  0.31883  0.283446  0  0.935874  0
H  H19  1  0.38690735  0.81959457  0.17134783  1  0.433158  0  0.318816  0.283389  0  0.935945  0
H  H20  1  0.60226195  0.04473165  0.11860281  1  0.12936  0  0.122475  0.096957  0  1.005562  0
H  H21  1  0.89774611  0.45528085  0.61859302  1  0.128877  0  0.122437  0.09696  0  1.005618  0
H  H22  1  0.39774599  0.95526743  0.88139802  1  0.129237  0  0.122506  0.096991  0  1.005676  0
H  H23  1  0.10226388  0.54470412  0.38140647  1  0.128868  0  0.12242  0.096942  0  1.005648  0
H  H24  1  0.55282485  0.02278824  0.20065851  1  0.084221  0  0.106103  0.108777  0  1.047388  0
H  H25  1  0.94719343  0.47720613  0.70064619  1  0.084612  0  0.106118  0.10873  0  1.047632  0
H  H26  1  0.44718013  0.97721088  0.79934266  1  0.084167  0  0.106082  0.108762  0  1.047488  0
H  H27  1  0.05282757  0.52277467  0.29935263  1  0.084099  0  0.106063  0.108585  0  1.047632  0
H  H28  1  0.83623387  0.39673725  0.21920373  1  0.117571  0  0.106835  0.117721  0  1.05246  0
H  H29  1  0.66373940  0.10328566  0.71920427  1  0.117507  0  0.106821  0.117735  0  1.052344  0
H  H30  1  0.16376190  0.60327004  0.78079743  1  0.117603  0  0.106856  0.117795  0  1.052429  0
H  H31  1  0.33626278  0.89670947  0.28079656  1  0.11747  0  0.106845  0.117764  0  1.05237  0
H  H32  1  0.87410413  0.40246426  0.13855011  1  0.125833  0  0.121303  0.091687  0  1.03629  0
H  H33  1  0.62586913  0.09757059  0.63855288  1  0.126252  0  0.121308  0.091785  0  1.036301  0
H  H34  1  0.12590069  0.59753888  0.86145105  1  0.125848  0  0.121298  0.091706  0  1.036285  0
H  H35  1  0.37412676  0.90242763  0.36144828  1  0.126194  0  0.121307  0.091772  0  1.03631  0
H  H36  1  0.55385377  0.02467637  0.40176436  1  0.147157  0  0.113099  0.125719  0  1.01975  0
H  H37  1  0.94611384  0.47535367  0.90175174  1  0.14715  0  0.113085  0.125569  0  1.019815  0
H  H38  1  0.44611461  0.97533729  0.59823580  1  0.146992  0  0.1131  0.125698  0  1.019804  0
H  H39  1  0.05387621  0.52465469  0.09824842  1  0.147064  0  0.113069  0.125563  0  1.019794  0
H  H40  1  0.60009360  0.05576687  0.48318416  1  0.110356  0  0.120835  0.094078  0  1.009525  0
H  H41  1  0.89988081  0.44426120  0.98317392  1  0.110218  0  0.120856  0.093927  0  1.009741  0
H  H42  1  0.39987786  0.94423770  0.51681566  1  0.110237  0  0.12082  0.094023  0  1.009615  0
H  H43  1  0.10012952  0.55573986  0.01682724  1  0.110249  0  0.120836  0.093934  0  1.009591  0
H  H44  1  0.81474742  0.44224168  0.46465166  1  0.145733  0  0.117532  0.093448  0  1.009063  0
H  H45  1  0.68528835  0.05775562  0.96465292  1  0.146301  0  0.117617  0.093478  0  1.009068  0
H  H46  1  0.18526713  0.55774624  0.53534950  1  0.145849  0  0.117547  0.093402  0  1.009112  0
H  H47  1  0.31474656  0.94223507  0.03534891  1  0.145684  0  0.117583  0.09339  0  1.009062  0
H  H48  1  0.77429249  0.43241862  0.38290992  1  0.079464  0  0.102827  0.097602  0  1.037847  0
H  H49  1  0.72572290  0.06759594  0.88290855  1  0.079038  0  0.102841  0.097608  0  1.037881  0
H  H50  1  0.22572252  0.56757635  0.61709158  1  0.079493  0  0.102845  0.097629  0  1.037679  0
H  H51  1  0.27428623  0.93240413  0.11709195  1  0.078959  0  0.102838  0.097593  0  1.037918  0
C  C52  1  0.65020126  0.11993709  0.14238217  1  0.391319  0  0.043541  0.076411  0  3.92824  0
C  C53  1  0.84979642  0.38008232  0.64237527  1  0.391722  0  0.043639  0.076506  0  3.92783  0
C  C54  1  0.34980236  0.88006506  0.85761866  1  0.391265  0  0.043521  0.076352  0  3.928483  0
C  C55  1  0.15021143  0.61990669  0.35762389  1  0.39134  0  0.043654  0.076443  0  3.928043  0
C  C56  1  0.62261914  0.10919442  0.18751908  1  0.031773  0  -0.085268  -0.168218  0  3.971466  0
C  C57  1  0.87738646  0.39081131  0.68750998  1  0.030897  0  -0.085194  -0.168085  0  3.971198  0
C  C58  1  0.37738349  0.89080774  0.81248174  1  0.031768  0  -0.085236  -0.168214  0  3.971649  0
C  C59  1  0.12262965  0.60917458  0.31248951  1  0.031901  0  -0.085137  -0.167816  0  3.97126  0
C  C60  1  0.68591659  0.20935872  0.21725127  1  0.000126  0  0.007262  0.064823  0  4.020579  0
C  C61  1  0.81407514  0.29065492  0.71724577  1  0.000406  0  0.007162  0.06488  0  4.020513  0
C  C62  1  0.31408095  0.79064753  0.78274922  1  0.000106  0  0.00723  0.065022  0  4.020565  0
C  C63  1  0.18593177  0.70933914  0.28275406  1  -0.000157  0  0.00712  0.064786  0  4.020515  0
C  C64  1  0.78004289  0.31569624  0.19902725  1  0.023661  0  -0.07997  -0.158663  0  3.920577  0
C  C65  1  0.71994133  0.18432272  0.69902634  1  0.023539  0  -0.079907  -0.158673  0  3.920583  0
C  C66  1  0.21995642  0.68430898  0.80097324  1  0.023746  0  -0.079969  -0.158832  0  3.92055  0
C  C67  1  0.28006360  0.81567137  0.30097449  1  0.023738  0  -0.07989  -0.158613  0  3.920535  0
C  C68  1  0.80330597  0.31940485  0.15315801  1  0.444931  0  0.056676  0.099343  0  3.867717  0
C  C69  1  0.69667543  0.18062270  0.65315985  1  0.444742  0  0.056617  0.099153  0  3.868156  0
C  C70  1  0.19669511  0.68059935  0.84684215  1  0.445037  0  0.056689  0.099367  0  3.867754  0
C  C71  1  0.30332301  0.81937348  0.34684131  1  0.444745  0  0.056568  0.099117  0  3.868212  0
C  C72  1  0.64469722  0.19358358  0.26388325  1  0.946936  0  0.219592  0.183231  0  3.993052  0
C  C73  1  0.85529221  0.30642656  0.76387512  1  0.946894  0  0.219501  0.183053  0  3.993226  0
C  C74  1  0.35529481  0.80642475  0.73611657  1  0.946516  0  0.219558  0.183067  0  3.993123  0
C  C75  1  0.14470861  0.69357160  0.23612537  1  0.947066  0  0.219514  0.18304  0  3.993128  0
C  C76  1  0.63141178  0.20161851  0.33735036  1  0.918094  0  0.215676  0.162725  0  4.013653  0
C  C77  1  0.86858294  0.29840485  0.83734175  1  0.918236  0  0.215658  0.162706  0  4.013976  0
C  C78  1  0.36858025  0.79838983  0.66264946  1  0.917966  0  0.215744  0.162829  0  4.013877  0
C  C79  1  0.13141382  0.70160242  0.16265875  1  0.918385  0  0.215613  0.162714  0  4.013833  0
C  C80  1  0.66195369  0.22470745  0.38472199  1  -0.022129  0  0.00839  0.06161  0  4.036563  0
C  C81  1  0.83804309  0.27531537  0.88471494  1  -0.022153  0  0.008373  0.061526  0  4.036705  0
C  C82  1  0.33803534  0.77529589  0.61527783  1  -0.02253  0  0.008334  0.06148  0  4.036567  0
C  C83  1  0.16195720  0.72468984  0.11528555  1  -0.022208  0  0.008284  0.061325  0  4.036846  0
C  C84  1  0.61163293  0.11901933  0.41414300  1  0.00204  0  -0.072531  -0.149679  0  3.926295  0
C  C85  1  0.88835766  0.38100023  0.91413582  1  0.001984  0  -0.072519  -0.149404  0  3.926405  0
C  C86  1  0.38834881  0.88098712  0.58585682  1  0.002687  0  -0.072458  -0.149513  0  3.926431  0
C  C87  1  0.11164264  0.61900498  0.08586501  1  0.002098  0  -0.072464  -0.149317  0  3.926493  0
C  C88  1  0.63692985  0.13586979  0.45951777  1  0.509145  0  0.059003  0.098358  0  3.939008  0
C  C89  1  0.86305725  0.36414831  0.95951068  1  0.509503  0  0.059056  0.098386  0  3.939255  0
C  C90  1  0.36305107  0.86413265  0.54048239  1  0.509197  0  0.059044  0.098372  0  3.939268  0
C  C91  1  0.13695682  0.63585170  0.04049048  1  0.509851  0  0.059026  0.098301  0  3.939399  0
C  C92  1  0.75775630  0.35158742  0.44912921  1  0.473183  0  0.058939  0.10473  0  3.93374  0
C  C93  1  0.74226272  0.14841731  0.94912771  1  0.472903  0  0.058937  0.104733  0  3.933539  0
C  C94  1  0.24224900  0.64840364  0.55087162  1  0.4735  0  0.058867  0.104694  0  3.933814  0
C  C95  1  0.25776216  0.85157753  0.05087379  1  0.474147  0  0.058916  0.104788  0  3.933624  0
C  C96  1  0.73606445  0.34397393  0.40308218  1  -0.031224  0  -0.089563  -0.189626  0  3.9784  0
C  C97  1  0.76394805  0.15604044  0.90307966  1  -0.030993  0  -0.089543  -0.189545  0  3.978258  0
C  C98  1  0.26393913  0.65602319  0.59691831  1  -0.031337  0  -0.08954  -0.189546  0  3.978263  0
C  C99  1  0.23606404  0.84395959  0.09692150  1  -0.031091  0  -0.089531  -0.189512  0  3.978325  0
C  C100  1  0.77222184  0.54052315  0.05576417  1  0.737156  0  -0.033328  -0.048836  0  3.77019  0
C  C101  1  0.72774997  0.95949490  0.55576307  1  0.736349  0  -0.033587  -0.049165  0  3.769989  0
C  C102  1  0.22779943  0.45948784  0.94423566  1  0.73675  0  -0.033387  -0.048867  0  3.770213  0
C  C103  1  0.27222638  0.04050458  0.44423576  1  0.736464  0  -0.033408  -0.048872  0  3.770109  0
C  C104  1  0.07021050  0.26063850  0.05882801  1  0.715977  0  -0.039571  -0.054767  0  3.779509  0
C  C105  1  0.42977080  0.23939590  0.55883210  1  0.71595  0  -0.039588  -0.054615  0  3.779572  0
C  C106  1  0.92979923  0.73934042  0.94118184  1  0.716328  0  -0.039523  -0.054562  0  3.779404  0
C  C107  1  0.57021724  0.76060745  0.44115602  1  0.71577  0  -0.039459  -0.054696  0  3.779614  0
C  C108  1  0.75978826  0.93453642  0.05161375  1  0.73464  0  -0.039466  -0.057368  0  3.781932  0
C  C109  1  0.74015338  0.56548305  0.55160688  1  0.734708  0  -0.039525  -0.057264  0  3.782113  0
C  C110  1  0.24018356  0.06546512  0.94839276  1  0.73508  0  -0.039404  -0.057145  0  3.782083  0
C  C111  1  0.25984235  0.43451920  0.44838760  1  0.734849  0  -0.039623  -0.057458  0  3.782238  0
C  C112  1  0.45728738  0.21605195  0.04951739  1  0.741474  0  -0.040592  -0.056705  0  3.778251  0
C  C113  1  0.04270179  0.28396434  0.54952088  1  0.742033  0  -0.040564  -0.05673  0  3.778235  0
C  C114  1  0.54272496  0.78395411  0.95047073  1  0.741854  0  -0.040411  -0.056372  0  3.778567  0
C  C115  1  0.95728067  0.71601191  0.45048062  1  0.741485  0  -0.040622  -0.056877  0  3.778578  0
N  N116  1  0.73888696  0.22462979  0.12471379  1  -1.128324  0  -0.309077  -0.122657  0  3.554825  0
N  N117  1  0.76109812  0.27539500  0.62471164  1  -1.128432  0  -0.30916  -0.122848  0  3.55506  0
N  N118  1  0.26111391  0.77537340  0.87528637  1  -1.128346  0  -0.309119  -0.122754  0  3.55503  0
N  N119  1  0.23889990  0.72459917  0.37528852  1  -1.12828  0  -0.309156  -0.122884  0  3.555399  0
N  N120  1  0.53305914  0.10938875  0.27697424  1  -0.697287  0  -0.224033  -0.248746  0  3.225229  0
N  N121  1  0.96692950  0.39062629  0.77695815  1  -0.697845  0  -0.224039  -0.248713  0  3.224901  0
N  N122  1  0.46693173  0.89062363  0.72302525  1  -0.69725  0  -0.223988  -0.248595  0  3.225269  0
N  N123  1  0.03306840  0.60937694  0.22304201  1  -0.697734  0  -0.224074  -0.248785  0  3.224897  0
N  N124  1  0.52609239  0.11299608  0.32243475  1  -0.645473  0  -0.212725  -0.217638  0  3.227632  0
N  N125  1  0.97389932  0.38702547  0.82241841  1  -0.644937  0  -0.212667  -0.217575  0  3.227384  0
N  N126  1  0.47389688  0.88701329  0.67756474  1  -0.645267  0  -0.212773  -0.217761  0  3.228057  0
N  N127  1  0.02609509  0.61298485  0.17758208  1  -0.644744  0  -0.212589  -0.217481  0  3.227324  0
N  N128  1  0.70825008  0.25601049  0.30118121  1  -0.868265  0  -0.13839  0.088921  0  3.724187  0
N  N129  1  0.79174380  0.24400624  0.80117754  1  -0.868204  0  -0.138447  0.088874  0  3.724186  0
N  N130  1  0.29174116  0.74399887  0.69881929  1  -0.868096  0  -0.13846  0.088821  0  3.724066  0
N  N131  1  0.20825587  0.75599597  0.19882295  1  -0.868459  0  -0.138398  0.088964  0  3.72402  0
N  N132  1  0.83523565  0.34111119  0.30106800  1  -0.713817  0  -0.484704  -0.496423  0  3.159935  0
N  N133  1  0.66475999  0.15889947  0.80107113  1  -0.714024  0  -0.484613  -0.496401  0  3.159393  0
N  N134  1  0.16475539  0.65889716  0.69893249  1  -0.713533  0  -0.484687  -0.496333  0  3.159674  0
N  N135  1  0.33523968  0.84110273  0.19892969  1  -0.713769  0  -0.484653  -0.4964  0  3.159531  0
N  N136  1  0.70923204  0.24939623  0.47652552  1  -1.208996  0  -0.269525  -0.161855  0  3.379468  0
N  N137  1  0.79077176  0.25061141  0.97652393  1  -1.209191  0  -0.26961  -0.161816  0  3.379253  0
N  N138  1  0.29075907  0.75059803  0.52347430  1  -1.20943  0  -0.269502  -0.161837  0  3.37948  0
N  N139  1  0.20925292  0.74938243  0.02347790  1  -1.210073  0  -0.269477  -0.161636  0  3.379436  0
N  N140  1  0.77217800  0.42529533  0.05849453  1  -1.300377  0  -0.383525  -0.271514  0  3.642627  0
N  N141  1  0.72780492  0.07472719  0.55849513  1  -1.299554  0  -0.383288  -0.271228  0  3.642248  0
N  N142  1  0.22784643  0.57471663  0.94150530  1  -1.30012  0  -0.383523  -0.271563  0  3.642885  0
N  N143  1  0.27217201  0.92527026  0.44150336  1  -1.299695  0  -0.383456  -0.271554  0  3.642349  0
N  N144  1  0.95426622  0.25971444  0.06144268  1  -1.286963  0  -0.382664  -0.269359  0  3.629053  0
N  N145  1  0.54571268  0.24030709  0.56144818  1  -1.286984  0  -0.382584  -0.269428  0  3.629089  0
N  N146  1  0.04574262  0.74027456  0.93856483  1  -1.287392  0  -0.382614  -0.26942  0  3.629136  0
N  N147  1  0.45427597  0.75969927  0.43854663  1  -1.28676  0  -0.382696  -0.269343  0  3.629141  0
N  N148  1  0.75615271  0.04907419  0.05393004  1  -1.299135  0  -0.384479  -0.268877  0  3.65448  0
N  N149  1  0.74381360  0.45095262  0.55393037  1  -1.299065  0  -0.384442  -0.269102  0  3.654533  0
N  N150  1  0.24383635  0.95093418  0.94607246  1  -1.299411  0  -0.384511  -0.269071  0  3.654746  0
N  N151  1  0.25618410  0.54904961  0.44606845  1  -1.299198  0  -0.384392  -0.268946  0  3.654636  0
N  N152  1  0.57296012  0.21523852  0.05149267  1  -1.300347  0  -0.38162  -0.265218  0  3.644196  0
N  N153  1  0.92702841  0.28478703  0.55149140  1  -1.300667  0  -0.381699  -0.265257  0  3.644113  0
N  N154  1  0.42705844  0.78477855  0.94850047  1  -1.300835  0  -0.381718  -0.26541  0  3.644662  0
N  N155  1  0.07295928  0.71520022  0.44851009  1  -1.300365  0  -0.381605  -0.26506  0  3.644184  0
