# generated using pymatgen
data_Ni2H30C40N4O9
_symmetry_space_group_name_H-M   'P 1'
_cell_length_a   13.91922126
_cell_length_b   13.91921208
_cell_length_c   17.95451838
_cell_angle_alpha   103.59079144
_cell_angle_beta   103.59082621
_cell_angle_gamma   113.18957712
_symmetry_Int_Tables_number   1
_chemical_formula_structural   Ni2H30C40N4O9
_chemical_formula_sum   'Ni4 H60 C80 N8 O18'
_cell_volume   2891.66359064
_cell_formula_units_Z   2
loop_
 _symmetry_equiv_pos_site_id
 _symmetry_equiv_pos_as_xyz
  1  'x, y, z'
loop_
 _atom_site_type_symbol
 _atom_site_label
 _atom_site_symmetry_multiplicity
 _atom_site_fract_x
 _atom_site_fract_y
 _atom_site_fract_z
 _atom_site_occupancy
 _atom_site_pbe_bader_charge
 _atom_site_pbe_bader_spin_density
 _atom_site_pbe_cm5_charge
 _atom_site_pbe_ddec_charge
 _atom_site_pbe_ddec_spin_density
 _atom_site_pbe_ddec_sum_bond_order
 _atom_site_pbe_magmom
Ni  Ni0  1  0.18569415  0.70856241  0.17369904  1  1.199391  1.566561  0.653343  0.814753  1.779107  2.515676  1.553
Ni  Ni1  1  0.98796516  0.46520793  0.17371778  1  1.200263  1.566544  0.654584  0.816756  1.782503  2.514923  1.553
Ni  Ni2  1  0.95856235  0.93569441  0.67369892  1  1.199328  1.566562  0.653328  0.814727  1.779111  2.515715  1.553
Ni  Ni3  1  0.71520790  0.73796591  0.67371692  1  1.200294  1.566546  0.65458  0.816746  1.782509  2.514923  1.553
H  H4  1  0.08698529  0.65064114  0.28649624  1  0.648545  0.000384  0.2868  0.377225  0.00063  0.966608  0.001
H  H5  1  0.33837452  0.95060008  0.26074224  1  0.111596  0.002004  0.119043  0.089072  0.000658  1.015557  0.001
H  H6  1  0.33706521  0.12183515  0.34113532  1  0.040751  0.001098  0.105428  0.110744  0.000522  1.005556  0.0
H  H7  1  0.98792555  0.91104433  0.29679103  1  0.077024  0.00128  0.113855  0.122649  0.000611  0.982016  0.0
H  H8  1  0.00450936  0.74881926  0.21773443  1  0.153544  0.002071  0.127691  0.103232  0.000682  0.992308  0.001
H  H9  1  0.06896568  0.10812494  0.36913608  1  0.047844  0.000117  0.104159  0.082226  9.2e-05  0.981145  0.0
H  H10  1  0.30317817  0.17038598  0.48110090  1  0.041538  -6.7e-05  0.105584  0.083906  -4.9e-05  0.97968  0.0
H  H11  1  0.11669019  0.25078761  0.56817473  1  0.077893  0.001108  0.105832  0.112842  0.000531  1.006994  0.0
H  H12  1  0.00904290  0.14343027  0.64097677  1  0.126442  0.002226  0.12621  0.106027  0.000808  0.988205  0.002
H  H13  1  0.08165539  0.88504847  0.56619785  1  0.123128  0.002189  0.124327  0.099887  0.000804  0.996002  0.001
H  H14  1  0.19496637  0.98060478  0.49101589  1  0.088435  0.001116  0.112146  0.125131  0.000526  0.983699  0.0
H  H15  1  0.71541023  0.46322575  0.02318111  1  0.081319  8.9e-05  0.09815  0.097933  1e-05  1.024708  0.0
H  H16  1  0.56075876  0.43984151  0.90355473  1  0.028696  0.000249  0.092698  0.088613  0.000113  1.009188  0.0
H  H17  1  0.60979110  0.54474407  0.81079048  1  0.072963  0.000198  0.095257  0.093912  0.000125  1.031287  0.0
H  H18  1  0.95991810  0.69656007  0.95772687  1  0.120633  0.000248  0.102302  0.106781  0.00014  1.027138  0.0
H  H19  1  0.19954345  0.63582915  0.28646763  1  0.653199  0.00039  0.287026  0.376005  0.000635  0.967939  0.001
H  H20  1  0.92234089  0.30997893  0.26085131  1  0.113029  0.002003  0.119274  0.089617  0.000659  1.015511  0.001
H  H21  1  0.00424924  0.21941194  0.34137634  1  0.056206  0.001092  0.104946  0.108971  0.000524  1.006047  0.0
H  H22  1  0.30886126  0.38580161  0.29680620  1  0.055155  0.001288  0.11343  0.121588  0.00061  0.982645  0.0
H  H23  1  0.21310070  0.46884592  0.21773876  1  0.138005  0.002077  0.126987  0.102077  0.000682  0.992586  0.001
H  H24  1  0.30038315  0.26114394  0.36910275  1  0.034765  0.000118  0.103608  0.08133  9.2e-05  0.980606  0.0
H  H25  1  0.17820932  0.31059387  0.48117727  1  0.020201  -6.8e-05  0.104632  0.082708  -5e-05  0.981738  0.0
H  H26  1  0.45174018  0.31732057  0.56822805  1  0.065316  0.00112  0.104762  0.111852  0.000534  1.007233  0.0
H  H27  1  0.63220499  0.49753187  0.64102072  1  0.158649  0.002215  0.126637  0.105699  0.000809  0.987654  0.002
H  H28  1  0.48467923  0.68105574  0.56628941  1  0.124002  0.002188  0.124039  0.098887  0.000805  0.996827  0.001
H  H29  1  0.29619687  0.51028195  0.49113437  1  0.078831  0.001123  0.112065  0.1257  0.000526  0.982506  0.0
H  H30  1  0.30780112  0.55998705  0.02331376  1  0.0928  9.5e-05  0.098692  0.09944  1e-05  1.025124  0.0
H  H31  1  0.34268887  0.46374622  0.90360279  1  0.026632  0.000249  0.093134  0.08843  0.000113  1.00934  0.0
H  H32  1  0.20079140  0.26607984  0.81084659  1  0.075294  0.000197  0.09509  0.093477  0.000126  1.031743  0.0
H  H33  1  0.99778861  0.26131342  0.95792741  1  0.127101  0.000248  0.101847  0.106222  0.000139  1.02702  0.0
H  H34  1  0.90064074  0.83698603  0.78649606  1  0.648546  0.000385  0.286794  0.377245  0.00063  0.966608  0.001
H  H35  1  0.20060086  0.08837484  0.76074220  1  0.111592  0.002003  0.119039  0.089065  0.000658  1.015564  0.001
H  H36  1  0.37183700  0.08706661  0.84113543  1  0.040716  0.001098  0.105444  0.110732  0.000522  1.005521  0.0
H  H37  1  0.16104697  0.73792653  0.79679217  1  0.077013  0.00128  0.113856  0.122647  0.000611  0.982035  0.0
H  H38  1  0.99882190  0.75450947  0.71773617  1  0.153603  0.002071  0.12769  0.103229  0.000682  0.992295  0.001
H  H39  1  0.35812618  0.81896656  0.86913638  1  0.047845  0.000117  0.104161  0.082231  9.2e-05  0.981152  0.0
H  H40  1  0.42038750  0.05317838  0.98110143  1  0.041488  -6.7e-05  0.105558  0.083874  -4.9e-05  0.97968  0.0
H  H41  1  0.50078825  0.86668859  0.06817290  1  0.077904  0.001108  0.105818  0.112829  0.000532  1.006982  0.0
H  H42  1  0.39343045  0.75904175  0.14097583  1  0.126862  0.002226  0.126218  0.106013  0.000808  0.988213  0.002
H  H43  1  0.13504941  0.83165465  0.06619760  1  0.123147  0.002189  0.124335  0.099908  0.000804  0.995989  0.001
H  H44  1  0.23060661  0.94496753  0.99101695  1  0.088442  0.001116  0.112144  0.125123  0.000526  0.983698  0.0
H  H45  1  0.71322599  0.46540973  0.52318136  1  0.081328  8.9e-05  0.098129  0.097948  1e-05  1.024749  0.0
H  H46  1  0.68984334  0.31075797  0.40355687  1  0.028661  0.000249  0.092726  0.08869  0.000113  1.009191  0.0
H  H47  1  0.79474463  0.35978924  0.31079153  1  0.071325  0.000198  0.095255  0.093939  0.000125  1.031213  0.0
H  H48  1  0.94655826  0.70991727  0.45772658  1  0.120652  0.000248  0.102283  0.106719  0.00014  1.027081  0.0
H  H49  1  0.88582650  0.94954258  0.78646597  1  0.65322  0.00039  0.287037  0.37604  0.000635  0.967897  0.001
H  H50  1  0.55997899  0.67234117  0.76085147  1  0.113035  0.002003  0.119277  0.089625  0.000659  1.015506  0.001
H  H51  1  0.46941310  0.75424954  0.84137680  1  0.055968  0.001092  0.104946  0.108976  0.000524  1.006043  0.0
H  H52  1  0.63580226  0.05886062  0.79680631  1  0.055148  0.001288  0.113437  0.121615  0.00061  0.982627  0.0
H  H53  1  0.71884600  0.96310135  0.71773855  1  0.137995  0.002076  0.126998  0.102082  0.000682  0.992637  0.001
H  H54  1  0.51114572  0.05038435  0.86910378  1  0.034619  0.000118  0.103609  0.081336  9.2e-05  0.98062  0.0
H  H55  1  0.56059435  0.92820920  0.98117719  1  0.020194  -6.8e-05  0.104631  0.0827  -5e-05  0.981734  0.0
H  H56  1  0.56731823  0.20173822  0.06822911  1  0.065277  0.00112  0.104763  0.111861  0.000534  1.007227  0.0
H  H57  1  0.74752965  0.38220518  0.14102111  1  0.158616  0.002216  0.126623  0.105688  0.000809  0.987673  0.002
H  H58  1  0.93105445  0.23468149  0.06629061  1  0.124029  0.002188  0.124023  0.098849  0.000805  0.996859  0.001
H  H59  1  0.76028254  0.04619852  0.99113556  1  0.078848  0.001123  0.11205  0.125699  0.000526  0.982536  0.0
H  H60  1  0.80998934  0.05780226  0.52331106  1  0.093056  9.5e-05  0.098695  0.099431  1e-05  1.02509  0.0
H  H61  1  0.71374706  0.09268839  0.40359976  1  0.026726  0.000249  0.093133  0.088391  0.000113  1.009415  0.0
H  H62  1  0.51608186  0.95079195  0.31084374  1  0.075488  0.000197  0.095061  0.093427  0.000126  1.031777  0.0
H  H63  1  0.51131229  0.74779085  0.45792612  1  0.126751  0.000248  0.101831  0.106211  0.000139  1.026983  0.0
C  C64  1  0.26227051  0.94675519  0.26939998  1  0.494133  -0.005713  0.047262  0.094969  -0.006508  3.969681  -0.004
C  C65  1  0.26043427  0.04131184  0.31443131  1  0.004478  0.005602  -0.092098  -0.194466  0.003056  3.98191  0.004
C  C66  1  0.16097940  0.03142649  0.32541943  1  -0.13799  -0.008658  0.003609  0.127524  -0.009386  3.985098  -0.006
C  C67  1  0.06723797  0.92444617  0.28944288  1  0.054066  0.00597  -0.081783  -0.180155  0.003263  3.941038  0.005
C  C68  1  0.07555338  0.83341959  0.24507200  1  0.468228  -0.005894  0.059281  0.119693  -0.006631  3.907811  -0.004
C  C69  1  0.15665576  0.12904759  0.37776830  1  0.005557  -0.001051  -0.071271  -0.076905  -0.001325  3.821011  0.0
C  C70  1  0.22583365  0.17774411  0.47304188  1  0.007523  -0.00076  -0.073116  -0.077483  -0.000953  3.834947  0.0
C  C71  1  0.16600055  0.12480653  0.52319450  1  -0.057036  -0.0082  -0.000455  0.122698  -0.008928  3.993597  -0.005
C  C72  1  0.11210889  0.17005637  0.56575018  1  -0.031867  0.006029  -0.093075  -0.198215  0.003244  3.977057  0.005
C  C73  1  0.05160989  0.11133263  0.60642890  1  0.489446  -0.005806  0.053003  0.102225  -0.006495  3.940392  -0.004
C  C74  1  0.09335000  0.96687368  0.56536017  1  0.517757  -0.005078  0.051955  0.095343  -0.005751  3.94604  -0.003
C  C75  1  0.15569088  0.02057112  0.52370742  1  -0.063276  0.005842  -0.084729  -0.184896  0.003184  3.95318  0.004
C  C76  1  0.84651427  0.58034621  0.99769397  1  -0.013617  0.012667  -0.019174  -0.030981  0.007551  3.956241  0.01
C  C77  1  0.73381377  0.50844613  0.98208276  1  -0.041529  0.000145  -0.088109  -0.088149  -0.000313  3.98218  0.0
C  C78  1  0.64838499  0.49571177  0.91538385  1  -0.038178  0.000704  -0.108461  -0.111767  0.000318  4.079845  0.001
C  C79  1  0.67506722  0.55446147  0.86381609  1  -0.046357  -0.00067  -0.090367  -0.096941  -0.000833  4.000013  -0.001
C  C80  1  0.78738697  0.62776831  0.87909623  1  -0.06343  0.007604  -0.023973  -0.039825  0.004457  3.973034  0.006
C  C81  1  0.87270098  0.64030834  0.94618246  1  -0.041623  0.001375  -0.079055  -0.102083  0.000447  3.919318  0.001
C  C82  1  0.93732226  0.59123592  0.06939257  1  1.571484  0.002647  0.21164  0.579252  0.002084  4.184467  0.001
C  C83  1  0.81323467  0.69258560  0.82349924  1  1.570714  -0.000236  0.210346  0.580182  -0.000561  4.180302  -0.001
C  C84  1  0.00715856  0.32264570  0.26955167  1  0.510022  -0.005704  0.046717  0.093908  -0.006478  3.968367  -0.004
C  C85  1  0.05413997  0.27323863  0.31464986  1  -0.063509  0.005619  -0.091135  -0.190143  0.003057  3.979879  0.004
C  C86  1  0.16457128  0.29411412  0.32557448  1  -0.044639  -0.008601  0.001718  0.123454  -0.009337  3.984783  -0.006
C  C87  1  0.22223253  0.36509571  0.28953643  1  0.022328  0.005934  -0.079408  -0.175973  0.003255  3.940152  0.005
C  C88  1  0.16945515  0.41165732  0.24514310  1  0.488831  -0.00589  0.060591  0.121237  -0.0066  3.9056  -0.004
C  C89  1  0.22135078  0.24879221  0.37781778  1  0.006125  -0.001058  -0.070636  -0.074981  -0.001326  3.818936  0.0
C  C90  1  0.24748185  0.29521398  0.47308660  1  0.040888  -0.000753  -0.073291  -0.078485  -0.000948  3.835847  0.0
C  C91  1  0.35744526  0.39830631  0.52325073  1  -0.032197  -0.008214  -0.000603  0.122975  -0.008946  3.992163  -0.005
C  C92  1  0.45391212  0.39563342  0.56579679  1  -0.011198  0.005983  -0.092354  -0.196884  0.003248  3.97475  0.005
C  C93  1  0.55507683  0.49505098  0.60646439  1  0.413122  -0.005745  0.05426  0.103874  -0.00651  3.938726  -0.004
C  C94  1  0.47218028  0.59840145  0.56542153  1  0.481537  -0.005034  0.052479  0.097401  -0.005762  3.948303  -0.003
C  C95  1  0.36820478  0.50304256  0.52378607  1  -0.023141  0.005804  -0.084823  -0.185964  0.003188  3.95339  0.004
C  C96  1  0.15118143  0.41740483  0.99782634  1  -0.052775  0.012695  -0.020967  -0.032026  0.007547  3.956331  0.01
C  C97  1  0.24827389  0.47367850  0.98221669  1  -0.112842  0.000163  -0.08912  -0.09093  -0.000328  3.983462  0.0
C  C98  1  0.26692981  0.41970698  0.91547633  1  0.017726  0.000704  -0.10696  -0.108027  0.00032  4.081382  0.001
C  C99  1  0.18864058  0.30941422  0.86391284  1  -0.091734  -0.00069  -0.090865  -0.098524  -0.00085  4.002445  -0.001
C  C100  1  0.09163135  0.25137619  0.87921554  1  -0.07011  0.007621  -0.024261  -0.039502  0.004457  3.974517  0.006
C  C101  1  0.07344323  0.30593049  0.94632362  1  0.045295  0.001291  -0.076565  -0.100016  0.00043  3.918416  0.001
C  C102  1  0.13210488  0.47829074  0.06950971  1  1.576378  0.002559  0.213289  0.580886  0.00207  4.183471  0.001
C  C103  1  0.01026191  0.13095495  0.82357573  1  1.559723  -0.00019  0.203195  0.573792  -0.000548  4.18351  -0.001
C  C104  1  0.19675592  0.01227078  0.76939995  1  0.494222  -0.005712  0.047242  0.094957  -0.006507  3.969704  -0.004
C  C105  1  0.29131333  0.01043549  0.81443158  1  0.004584  0.005602  -0.092105  -0.194465  0.003056  3.981873  0.004
C  C106  1  0.28142869  0.91097946  0.82542062  1  -0.138087  -0.008658  0.003603  0.127568  -0.009386  3.984986  -0.006
C  C107  1  0.17444769  0.81723837  0.78944336  1  0.054072  0.00597  -0.081797  -0.180199  0.003263  3.941013  0.005
C  C108  1  0.08342077  0.82555380  0.74507260  1  0.468198  -0.005894  0.059315  0.119749  -0.006631  3.907892  -0.004
C  C109  1  0.37905038  0.90665654  0.87776819  1  0.005534  -0.001052  -0.071261  -0.076898  -0.001325  3.821077  0.0
C  C110  1  0.42774582  0.97583393  0.97304224  1  0.007579  -0.00076  -0.073118  -0.077527  -0.000953  3.834989  0.0
C  C111  1  0.37480616  0.91599995  0.02319360  1  -0.057011  -0.0082  -0.000466  0.122666  -0.008928  3.99361  -0.005
C  C112  1  0.42005654  0.86210864  0.06574988  1  -0.031883  0.006029  -0.093036  -0.198148  0.003245  3.976996  0.005
C  C113  1  0.36133272  0.80160916  0.10642877  1  0.489163  -0.005805  0.053021  0.102226  -0.006495  3.940557  -0.004
C  C114  1  0.21687424  0.84335004  0.06535978  1  0.517752  -0.005078  0.051952  0.095314  -0.005751  3.94601  -0.003
C  C115  1  0.27057080  0.90569077  0.02370726  1  -0.063302  0.005841  -0.084725  -0.184854  0.003184  3.953133  0.004
C  C116  1  0.83034556  0.59651353  0.49769331  1  -0.013608  0.012667  -0.019157  -0.030969  0.007551  3.956288  0.01
C  C117  1  0.75844599  0.48381154  0.48208239  1  -0.041693  0.000145  -0.0881  -0.088212  -0.000313  3.982246  0.0
C  C118  1  0.74571181  0.39838230  0.41538443  1  -0.038127  0.000704  -0.108494  -0.111874  0.000318  4.079907  0.001
C  C119  1  0.80446188  0.42506533  0.36381720  1  -0.044866  -0.000669  -0.090349  -0.096915  -0.000833  3.999788  -0.001
C  C120  1  0.87776889  0.53738654  0.37909687  1  -0.063198  0.007604  -0.023981  -0.039877  0.004457  3.972932  0.006
C  C121  1  0.89030720  0.62270035  0.44618280  1  -0.041642  0.001375  -0.079052  -0.101984  0.000447  3.919326  0.001
C  C122  1  0.84123407  0.68732079  0.56939198  1  1.571498  0.002647  0.211635  0.579272  0.002084  4.184424  0.001
C  C123  1  0.94258435  0.56323392  0.32349874  1  1.570753  -0.000236  0.210366  0.580251  -0.000561  4.180193  -0.001
C  C124  1  0.57264536  0.75715893  0.76955253  1  0.510004  -0.005704  0.046707  0.093913  -0.006478  3.968371  -0.004
C  C125  1  0.52324002  0.80414027  0.81465025  1  -0.063265  0.005618  -0.091127  -0.190176  0.003057  3.979883  0.004
C  C126  1  0.54411557  0.91457221  0.82557469  1  -0.044423  -0.008602  0.001753  0.123546  -0.009338  3.984682  -0.006
C  C127  1  0.61509697  0.97223390  0.78953656  1  0.022311  0.005934  -0.079454  -0.176072  0.003255  3.940151  0.005
C  C128  1  0.66165675  0.91945617  0.74514296  1  0.488815  -0.005891  0.060579  0.121246  -0.0066  3.905602  -0.004
C  C129  1  0.49879231  0.97135067  0.87781783  1  0.006062  -0.001059  -0.070643  -0.075031  -0.001326  3.818977  0.0
C  C130  1  0.54521366  0.99748225  0.97308839  1  0.040784  -0.000753  -0.0733  -0.078433  -0.000948  3.835804  0.0
C  C131  1  0.64830675  0.10744628  0.02325182  1  -0.032111  -0.008213  -0.000594  0.12297  -0.008946  3.992106  -0.005
C  C132  1  0.64563211  0.20391213  0.06579784  1  -0.011189  0.005983  -0.092337  -0.196897  0.003249  3.974688  0.005
C  C133  1  0.74504933  0.30507718  0.10646543  1  0.41338  -0.005744  0.054274  0.1039  -0.00651  3.938685  -0.004
C  C134  1  0.84840140  0.22218288  0.06542316  1  0.48158  -0.005034  0.052544  0.097485  -0.005762  3.948274  -0.003
C  C135  1  0.75304280  0.11820560  0.02378637  1  -0.023268  0.005804  -0.084843  -0.185997  0.003188  3.953288  0.004
C  C136  1  0.66740708  0.90118246  0.49782412  1  -0.05305  0.012695  -0.020945  -0.031975  0.007547  3.956528  0.01
C  C137  1  0.72367995  0.99827452  0.48221307  1  -0.113023  0.000163  -0.089068  -0.090888  -0.000328  3.983512  0.0
C  C138  1  0.66971039  0.01693130  0.41547285  1  0.018163  0.000704  -0.106949  -0.107949  0.00032  4.081354  0.001
C  C139  1  0.55941700  0.93864173  0.36390958  1  -0.092136  -0.00069  -0.090852  -0.098491  -0.00085  4.002532  -0.001
C  C140  1  0.50137898  0.84163339  0.37921289  1  -0.070352  0.007622  -0.024312  -0.03965  0.004457  3.974669  0.006
C  C141  1  0.55593187  0.82344432  0.44632164  1  0.045684  0.001291  -0.076579  -0.100022  0.00043  3.918287  0.001
C  C142  1  0.72829170  0.88210703  0.56950789  1  1.576405  0.002558  0.213174  0.580789  0.00207  4.183587  0.001
C  C143  1  0.38095503  0.76026284  0.32357509  1  1.559838  -0.000191  0.203229  0.573861  -0.000549  4.183388  -0.001
N  N144  1  0.17156381  0.84417705  0.23506719  1  -1.213477  0.071832  -0.325563  -0.228455  0.041726  3.585301  0.065
N  N145  1  0.04258964  0.01169171  0.60648823  1  -1.201562  0.074253  -0.32206  -0.207714  0.043092  3.569931  0.066
N  N146  1  0.06344035  0.39085842  0.23516231  1  -1.215714  0.071863  -0.326517  -0.231166  0.041705  3.581404  0.065
N  N147  1  0.56408467  0.59472528  0.60651212  1  -1.191859  0.0743  -0.322703  -0.209532  0.043093  3.571718  0.066
N  N148  1  0.09417704  0.92156303  0.73506762  1  -1.213532  0.071831  -0.325559  -0.228446  0.041726  3.585334  0.065
N  N149  1  0.26169291  0.79258961  0.10648847  1  -1.201701  0.074255  -0.322082  -0.207721  0.043093  3.57009  0.066
N  N150  1  0.64085851  0.81344022  0.73516230  1  -1.21566  0.071864  -0.326516  -0.231172  0.041705  3.581317  0.065
N  N151  1  0.84472360  0.31408577  0.10651294  1  -1.192  0.074301  -0.32274  -0.209567  0.043094  3.571763  0.066
O  O152  1  0.03839040  0.65416352  0.07891377  1  -1.158206  0.072683  -0.310242  -0.559644  0.040307  2.403256  0.067
O  O153  1  0.90586676  0.53772502  0.11517976  1  -1.156166  0.05923  -0.317567  -0.553429  0.032647  2.356252  0.053
O  O154  1  0.91238009  0.76962501  0.84255169  1  -1.175661  0.001904  -0.333076  -0.550365  0.00026  2.128913  0.001
O  O155  1  0.72864103  0.66420246  0.75973428  1  -1.159197  0.074562  -0.318635  -0.569705  0.041675  2.417897  0.069
O  O156  1  0.04058323  0.42487390  0.07906647  1  -1.150265  0.072503  -0.311664  -0.560345  0.040214  2.405334  0.067
O  O157  1  0.20929235  0.57764471  0.11520581  1  -1.164107  0.05919  -0.317407  -0.553868  0.032598  2.357313  0.053
O  O158  1  0.93005704  0.07293468  0.84253895  1  -1.17138  0.001906  -0.330834  -0.548143  0.00026  2.127901  0.001
O  O159  1  0.03125052  0.09557007  0.75990120  1  -1.157278  0.074532  -0.314998  -0.566217  0.04166  2.415049  0.069
O  O160  1  0.90416273  0.78839012  0.57891400  1  -1.158179  0.072684  -0.310191  -0.559615  0.040307  2.403247  0.067
O  O161  1  0.78772273  0.65586479  0.61517857  1  -1.156193  0.059231  -0.317598  -0.553478  0.032648  2.356219  0.053
O  O162  1  0.01962291  0.66237982  0.34255159  1  -1.175639  0.001905  -0.333071  -0.550381  0.00026  2.128876  0.001
O  O163  1  0.91420099  0.47864099  0.25973450  1  -1.159256  0.074562  -0.318652  -0.569749  0.041675  2.417913  0.069
O  O164  1  0.67487355  0.79058536  0.57906591  1  -1.150247  0.072506  -0.311571  -0.560234  0.040215  2.405324  0.067
O  O165  1  0.82764495  0.95929374  0.61520442  1  -1.164128  0.05919  -0.317427  -0.553905  0.032598  2.35729  0.053
O  O166  1  0.32293727  0.68005860  0.34254033  1  -1.171424  0.001906  -0.330873  -0.548171  0.00026  2.127813  0.001
O  O167  1  0.34557044  0.78125189  0.25990124  1  -1.157353  0.074533  -0.314974  -0.566186  0.041661  2.414978  0.069
O  O168  1  0.12408094  0.62406766  0.24813120  1  -1.252584  0.11647  -0.554981  -0.771158  0.06687  2.431983  0.105
O  O169  1  0.87406672  0.87408058  0.74812887  1  -1.252602  0.116472  -0.554994  -0.771221  0.066872  2.431999  0.105
