# generated using pymatgen
data_Cu3H28WC28S3IN8O
_symmetry_space_group_name_H-M   'P 1'
_cell_length_a   10.49818225
_cell_length_b   12.52295327
_cell_length_c   17.21565125
_cell_angle_alpha   70.94005461
_cell_angle_beta   88.20563828
_cell_angle_gamma   76.78249462
_symmetry_Int_Tables_number   1
_chemical_formula_structural   Cu3H28WC28S3IN8O
_chemical_formula_sum   'Cu6 H56 W2 C56 S6 I2 N16 O2'
_cell_volume   2080.24779656
_cell_formula_units_Z   2
loop_
 _symmetry_equiv_pos_site_id
 _symmetry_equiv_pos_as_xyz
  1  'x, y, z'
loop_
 _atom_site_type_symbol
 _atom_site_label
 _atom_site_symmetry_multiplicity
 _atom_site_fract_x
 _atom_site_fract_y
 _atom_site_fract_z
 _atom_site_occupancy
 _atom_site_pbe_bader_charge
 _atom_site_pbe_bader_spin_density
 _atom_site_pbe_cm5_charge
 _atom_site_pbe_ddec_charge
 _atom_site_pbe_ddec_spin_density
 _atom_site_pbe_ddec_sum_bond_order
 _atom_site_pbe_magmom
Cu  Cu0  1  0.29080709  0.82489064  0.16848656  1  0.591987  0  0.443544  0.331882  0  2.756571  0
Cu  Cu1  1  0.70918470  0.17511460  0.83151078  1  0.591985  0  0.443586  0.331926  0  2.756604  0
Cu  Cu2  1  0.99513156  0.73579044  0.28521477  1  0.509564  0  0.368194  0.314265  0  2.781657  0
Cu  Cu3  1  0.00486536  0.26420958  0.71478251  1  0.509506  0  0.368204  0.314295  0  2.781808  0
Cu  Cu4  1  0.97751837  0.77022454  0.08523556  1  0.536361  0  0.413226  0.351826  0  2.669593  0
Cu  Cu5  1  0.02247857  0.22977547  0.91476288  1  0.536399  0  0.413187  0.351824  0  2.669501  0
H  H6  1  0.54040622  0.93689786  0.20042514  1  0.127403  0  0.132334  0.105679  0  0.987504  0
H  H7  1  0.45959207  0.06309691  0.79957740  1  0.127399  0  0.132336  0.105667  0  0.987565  0
H  H8  1  0.24547318  0.05886269  0.01075316  1  0.130876  0  0.100205  0.100971  0  1.053997  0
H  H9  1  0.75453904  0.94114074  0.98924006  1  0.130764  0  0.10019  0.100959  0  1.053966  0
H  H10  1  0.42018273  0.20446919  0.97431435  1  0.129159  0  0.119353  0.120342  0  1.022574  0
H  H11  1  0.57983382  0.79552891  0.02568989  1  0.129128  0  0.119413  0.120303  0  1.022544  0
H  H12  1  0.63723718  0.18914918  0.03434443  1  0.088206  0  0.109243  0.114351  0  0.98732  0
H  H13  1  0.36278225  0.81083762  0.96566355  1  0.087942  0  0.10924  0.114386  0  0.987253  0
H  H14  1  0.71214408  0.05994367  0.11218314  1  0.09756  0  0.101238  0.104639  0  1.019995  0
H  H15  1  0.28786067  0.94004489  0.88783058  1  0.09779  0  0.101169  0.104641  0  1.019878  0
H  H16  1  0.81758579  0.17169319  0.17269342  1  0.127525  0  0.100203  0.120432  0  1.038805  0
H  H17  1  0.18242233  0.82830060  0.82731377  1  0.127751  0  0.100249  0.12049  0  1.038676  0
H  H18  1  0.79899450  0.28259239  0.27056649  1  0.048499  0  0.096565  0.093345  0  1.008553  0
H  H19  1  0.20101014  0.71740751  0.72943703  1  0.048585  0  0.0966  0.093381  0  1.008472  0
H  H20  1  0.37803410  0.33987184  0.25442180  1  0.072317  0  0.086902  0.089567  0  1.042851  0
H  H21  1  0.62196766  0.66012809  0.74558062  1  0.07236  0  0.086894  0.089531  0  1.042819  0
H  H22  1  0.39706183  0.23074927  0.15637795  1  0.075287  0  0.098115  0.096923  0  1.034609  0
H  H23  1  0.60294582  0.76924628  0.84362651  1  0.07516  0  0.098153  0.097  0  1.034531  0
H  H24  1  0.34011957  0.55812749  0.26460321  1  0.156634  0  0.111452  0.092215  0  1.066502  0
H  H25  1  0.65987261  0.44187252  0.73539708  1  0.156603  0  0.111436  0.09217  0  1.066533  0
H  H26  1  0.61509182  0.76283583  0.17208149  1  0.135072  0  0.107951  0.111366  0  1.045487  0
H  H27  1  0.38488797  0.23716777  0.82791418  1  0.134778  0  0.107935  0.111257  0  1.045521  0
H  H28  1  0.74930493  0.54041817  0.26189395  1  0.089963  0  0.114416  0.114551  0  1.037463  0
H  H29  1  0.25068788  0.45959054  0.73810139  1  0.089826  0  0.114437  0.11457  0  1.037402  0
H  H30  1  0.49297462  0.37799455  0.36621432  1  0.097363  0  0.115717  0.103674  0  0.970362  0
H  H31  1  0.50702359  0.62200802  0.63378581  1  0.097219  0  0.115749  0.103721  0  0.970285  0
H  H32  1  0.66429020  0.36680132  0.36497568  1  0.039192  0  0.114646  0.10099  0  0.963731  0
H  H33  1  0.33571082  0.63320903  0.63502315  1  0.039258  0  0.114636  0.100971  0  0.963682  0
H  H34  1  0.90028288  0.50756562  0.38377354  1  0.134678  0  0.119248  0.09072  0  1.039444  0
H  H35  1  0.09971672  0.49243522  0.61622639  1  0.134713  0  0.119264  0.090743  0  1.039446  0
H  H36  1  0.91078709  0.80374504  0.44645717  1  0.1014  0  0.122558  0.122227  0  0.983439  0
H  H37  1  0.08920800  0.19625845  0.55353934  1  0.101421  0  0.122565  0.12218  0  0.983432  0
H  H38  1  0.80915486  0.64929982  0.57647802  1  0.144425  0  0.112197  0.123275  0  1.030988  0
H  H39  1  0.19084216  0.35070365  0.42352018  1  0.144566  0  0.11218  0.123278  0  1.03098  0
H  H40  1  0.80066217  0.43390672  0.60328893  1  0.099169  0  0.099951  0.09502  0  1.032686  0
H  H41  1  0.19933462  0.56609762  0.39670908  1  0.099197  0  0.099936  0.095073  0  1.03272  0
H  H42  1  0.83229586  0.37826692  0.52134619  1  0.092556  0  0.115204  0.106795  0  0.964642  0
H  H43  1  0.16770499  0.62173652  0.47865252  1  0.092521  0  0.11521  0.10683  0  0.964586  0
H  H44  1  0.61594721  0.31696323  0.60554888  1  0.083114  0  0.098309  0.118812  0  0.99862  0
H  H45  1  0.38405361  0.68304022  0.39444867  1  0.083073  0  0.098352  0.118847  0  0.998624  0
H  H46  1  0.62108573  0.64858812  0.42446260  1  0.087656  0  0.100719  0.103323  0  1.021501  0
H  H47  1  0.37891488  0.35141620  0.57553475  1  0.087515  0  0.100742  0.10337  0  1.021452  0
H  H48  1  0.88026303  0.53636314  0.12401645  1  0.159702  0  0.119894  0.092977  0  1.038974  0
H  H49  1  0.11973058  0.46363863  0.87598050  1  0.159367  0  0.119855  0.092911  0  1.039023  0
H  H50  1  0.92550231  0.79168005  0.90040956  1  0.159359  0  0.116618  0.133208  0  1.037182  0
H  H51  1  0.07450620  0.20831558  0.09958731  1  0.159472  0  0.116615  0.133231  0  1.03721  0
H  H52  1  0.83064864  0.61841272  0.86634331  1  0.144778  0  0.109883  0.126633  0  1.033205  0
H  H53  1  0.16936223  0.38158114  0.13365508  1  0.144978  0  0.109855  0.126649  0  1.033167  0
H  H54  1  0.82280527  0.38486612  0.07122536  1  0.072795  0  0.114441  0.102528  0  0.984148  0
H  H55  1  0.17719260  0.61513389  0.92877190  1  0.072707  0  0.11446  0.102566  0  0.984089  0
H  H56  1  0.82505682  0.40768912  0.96426754  1  0.071033  0  0.107054  0.096451  0  1.015407  0
H  H57  1  0.17493652  0.59231003  0.03573176  1  0.071269  0  0.10705  0.096467  0  1.015387  0
H  H58  1  0.61260632  0.56910275  0.09248736  1  0.066208  0  0.090774  0.082132  0  1.06138  0
H  H59  1  0.38738918  0.43089550  0.90751385  1  0.066261  0  0.090766  0.082133  0  1.061395  0
H  H60  1  0.62994773  0.38892835  0.91643049  1  0.083244  0  0.093883  0.095801  0  1.043652  0
H  H61  1  0.37004653  0.61106730  0.08357194  1  0.083311  0  0.093885  0.095833  0  1.043721  0
W  W62  1  0.03274402  0.91356364  0.15743046  1  1.862051  0  0.995638  1.102956  0  5.598988  0
W  W63  1  0.96725056  0.08643811  0.84256762  1  1.862193  0  0.995616  1.102947  0  5.59922  0
C  C64  1  0.48201092  0.98782960  0.14416225  1  0.967353  0  0.131102  0.079823  0  3.923994  0
C  C65  1  0.51799052  0.01216776  0.85583903  1  0.967479  0  0.131169  0.079954  0  3.923949  0
C  C66  1  0.33262886  0.05464678  0.04481821  1  0.418889  0  -0.012559  -0.031382  0  4.005884  0
C  C67  1  0.66737835  0.94535403  0.95517980  1  0.419246  0  -0.012497  -0.031392  0  4.00557  0
C  C68  1  0.41763213  0.12717503  0.02571736  1  0.264213  0  0.001096  -0.097302  0  3.916129  0
C  C69  1  0.58237961  0.87282311  0.97428523  1  0.263775  0  0.001045  -0.09718  0  3.916014  0
C  C70  1  0.62382387  0.13115197  0.09597011  1  0.303057  0  -0.047999  -0.109718  0  3.870197  0
C  C71  1  0.37618661  0.86884007  0.90403802  1  0.303265  0  -0.048023  -0.109811  0  3.870019  0
C  C72  1  0.60846422  0.19548738  0.15737264  1  -0.0416  0  -0.008943  0.098049  0  3.962595  0
C  C73  1  0.39154178  0.80450730  0.84263439  1  -0.041082  0  -0.008792  0.098194  0  3.96235  0
C  C74  1  0.72135286  0.20999720  0.19018359  1  -0.094639  0  -0.095161  -0.13652  0  3.965925  0
C  C75  1  0.27865556  0.78999919  0.80982298  1  -0.094994  0  -0.095264  -0.136632  0  3.965933  0
C  C76  1  0.71042952  0.27163101  0.24537818  1  -0.001762  0  -0.097202  -0.135319  0  4.016092  0
C  C77  1  0.28957520  0.72837236  0.75462452  1  -0.001786  0  -0.097187  -0.135292  0  4.015981  0
C  C78  1  0.58737953  0.31848303  0.26928557  1  -0.045163  0  -0.023826  0.068533  0  4.012317  0
C  C79  1  0.41262251  0.68151952  0.73071507  1  -0.045133  0  -0.023852  0.068448  0  4.012229  0
C  C80  1  0.47493571  0.30300614  0.23688806  1  -0.059043  0  -0.096193  -0.126625  0  3.992899  0
C  C81  1  0.52506589  0.69699814  0.76311217  1  -0.059233  0  -0.096155  -0.126444  0  3.992751  0
C  C82  1  0.48544934  0.24202235  0.18130460  1  -0.025729  0  -0.094465  -0.131202  0  3.990345  0
C  C83  1  0.51455757  0.75797236  0.81869892  1  -0.025929  0  -0.094578  -0.131439  0  3.990341  0
C  C84  1  0.43217024  0.58538679  0.25193271  1  0.968943  0  0.135491  0.093219  0  3.892929  0
C  C85  1  0.56782261  0.41461061  0.74806876  1  0.968977  0  0.135592  0.093363  0  3.892925  0
C  C86  1  0.57685900  0.68772622  0.20459025  1  0.40239  0  -0.010051  -0.042498  0  3.987759  0
C  C87  1  0.42312911  0.31227471  0.79540701  1  0.402329  0  -0.010009  -0.042234  0  3.987504  0
C  C88  1  0.64505080  0.57772509  0.24938598  1  0.289914  0  -0.002428  -0.11211  0  3.934134  0
C  C89  1  0.35494145  0.42227840  0.75061291  1  0.290044  0  -0.002439  -0.112191  0  3.934192  0
C  C90  1  0.57513553  0.39007885  0.32575306  1  0.26422  0  -0.041415  -0.101727  0  3.905201  0
C  C91  1  0.42486366  0.60992371  0.67424821  1  0.264313  0  -0.041464  -0.101758  0  3.905056  0
C  C92  1  0.88662696  0.56925468  0.41700324  1  0.973165  0  0.132126  0.083922  0  3.914944  0
C  C93  1  0.11337123  0.43074791  0.58299515  1  0.973121  0  0.132086  0.08395  0  3.914863  0
C  C94  1  0.89158916  0.72008778  0.45242096  1  0.413648  0  -0.008395  -0.051349  0  4.004212  0
C  C95  1  0.10840616  0.27991483  0.54757691  1  0.413648  0  -0.008322  -0.05113  0  4.004088  0
C  C96  1  0.83970387  0.64628922  0.51632917  1  0.258689  0  -0.003195  -0.107434  0  3.939097  0
C  C97  1  0.16029764  0.35371160  0.48367071  1  0.258537  0  -0.00326  -0.107556  0  3.939199  0
C  C98  1  0.78016695  0.45475656  0.53697938  1  0.306031  0  -0.047814  -0.107833  0  3.901373  0
C  C99  1  0.21983219  0.54524602  0.46301899  1  0.305983  0  -0.047829  -0.107966  0  3.901486  0
C  C100  1  0.63502576  0.48009618  0.51717973  1  -0.044288  0  -0.020032  0.075426  0  3.99426  0
C  C101  1  0.36497603  0.51990726  0.48281838  1  -0.044051  0  -0.020036  0.075423  0  3.994173  0
C  C102  1  0.56523516  0.39719407  0.55892630  1  -0.101273  0  -0.095088  -0.129868  0  3.98461  0
C  C103  1  0.43476684  0.60280852  0.44107084  1  -0.101243  0  -0.095088  -0.129851  0  3.984584  0
C  C104  1  0.56860932  0.58310807  0.45813828  1  -0.032496  0  -0.098072  -0.143616  0  4.016418  0
C  C105  1  0.43139068  0.41689881  0.54186255  1  -0.032468  0  -0.098222  -0.143775  0  4.016435  0
C  C106  1  0.87626420  0.58502034  0.05883722  1  0.937515  0  0.13026  0.076965  0  3.915088  0
C  C107  1  0.12373294  0.41497882  0.94115967  1  0.937455  0  0.130313  0.077048  0  3.91498  0
C  C108  1  0.89958147  0.71387960  0.94115455  1  0.402157  0  -0.005744  -0.041368  0  3.969133  0
C  C109  1  0.10042046  0.28611951  0.05884399  1  0.402017  0  -0.00576  -0.041413  0  3.969158  0
C  C110  1  0.85160510  0.63061896  0.92376614  1  0.276346  0  -0.004168  -0.108205  0  3.917236  0
C  C111  1  0.14839992  0.36937927  0.07623253  1  0.276197  0  -0.004161  -0.108251  0  3.917152  0
C  C112  1  0.78512532  0.44742916  0.01067646  1  0.298648  0  -0.046166  -0.105546  0  3.877887  0
C  C113  1  0.21487088  0.55256998  0.98932220  1  0.298437  0  -0.046236  -0.10566  0  3.877872  0
C  C114  1  0.63737260  0.47590350  0.00504402  1  0.02394  0  -0.013927  0.0879  0  3.968918  0
C  C115  1  0.36262457  0.52409563  0.99495578  1  0.02404  0  -0.013906  0.087999  0  3.968723  0
C  C116  1  0.56359281  0.53888809  0.05156176  1  -0.032886  0  -0.095233  -0.124582  0  3.980735  0
C  C117  1  0.43640569  0.46110581  0.94843981  1  -0.033023  0  -0.095256  -0.124705  0  3.980714  0
C  C118  1  0.57276229  0.43737770  0.95327880  1  -0.100115  0  -0.092721  -0.125524  0  3.976639  0
C  C119  1  0.42723387  0.56261795  0.04672300  1  -0.100227  0  -0.092698  -0.125643  0  3.976704  0
S  S120  1  0.14824845  0.85373489  0.05900062  1  -0.72197  0  -0.425052  -0.553583  0  2.886904  0
S  S121  1  0.85174687  0.14626773  0.94099725  1  -0.721876  0  -0.424993  -0.553507  0  2.8869  0
S  S122  1  0.15700031  0.83253603  0.27714486  1  -0.742445  0  -0.460315  -0.574535  0  2.7038  0
S  S123  1  0.84299547  0.16746484  0.72285457  1  -0.74247  0  -0.460322  -0.574548  0  2.703896  0
S  S124  1  0.85124909  0.83695874  0.17556962  1  -0.751765  0  -0.440173  -0.556412  0  2.813382  0
S  S125  1  0.14874731  0.16303956  0.82442749  1  -0.751906  0  -0.440146  -0.556413  0  2.813481  0
I  I126  1  0.09064727  0.52014889  0.24861045  1  -0.658197  0  -0.319385  -0.589946  0  1.246501  0
I  I127  1  0.90934753  0.47985200  0.75138725  1  -0.658176  0  -0.319373  -0.589912  0  1.246485  0
N  N128  1  0.37382797  0.96770117  0.11882928  1  -1.211015  0  -0.37628  -0.272732  0  3.617828  0
N  N129  1  0.62617566  0.03229879  0.88116960  1  -1.211055  0  -0.376339  -0.272808  0  3.617721  0
N  N130  1  0.51219908  0.08345067  0.08901478  1  -1.250968  0  -0.244107  0.042541  0  3.802651  0
N  N131  1  0.48780856  0.91654489  0.91098910  1  -1.250974  0  -0.244173  0.04236  0  3.802931  0
N  N132  1  0.44402452  0.69136997  0.20665741  1  -1.219466  0  -0.38703  -0.249492  0  3.667513  0
N  N133  1  0.55596617  0.30862834  0.79334157  1  -1.219164  0  -0.38712  -0.24963  0  3.667217  0
N  N134  1  0.55172768  0.51449947  0.27904757  1  -1.212866  0  -0.242219  0.040834  0  3.780588  0
N  N135  1  0.44826715  0.48550140  0.72095188  1  -1.21285  0  -0.242236  0.040801  0  3.780525  0
N  N136  1  0.92078468  0.67077037  0.39092209  1  -1.199996  0  -0.39435  -0.237966  0  3.710018  0
N  N137  1  0.07921277  0.32923136  0.60907594  1  -1.199822  0  -0.394401  -0.238114  0  3.710121  0
N  N138  1  0.83819973  0.55100178  0.49297658  1  -1.249438  0  -0.247643  0.043047  0  3.807361  0
N  N139  1  0.16180059  0.44899993  0.50702254  1  -1.249448  0  -0.247557  0.0431  0  3.807428  0
N  N140  1  0.91480280  0.68425970  0.02585217  1  -1.237982  0  -0.39897  -0.246639  0  3.717097  0
N  N141  1  0.08519746  0.31573854  0.97414777  1  -1.237837  0  -0.398938  -0.246662  0  3.71706  0
N  N142  1  0.83804207  0.54968092  0.99870348  1  -1.225216  0  -0.241731  0.048647  0  3.782509  0
N  N143  1  0.16195602  0.45031822  0.00129397  1  -1.225153  0  -0.241676  0.048759  0  3.782326  0
O  O144  1  0.98597172  0.06463253  0.13188740  1  -0.923944  0  -0.541668  -0.547666  0  1.956113  0
O  O145  1  0.01402407  0.93536833  0.86811261  1  -0.923968  0  -0.54169  -0.547715  0  1.956166  0
