# generated using pymatgen
data_ZnH16C23NO4
_symmetry_space_group_name_H-M   'P 1'
_cell_length_a   13.97407067
_cell_length_b   17.84733766
_cell_length_c   17.84731087
_cell_angle_alpha   104.81421231
_cell_angle_beta   92.08009918
_cell_angle_gamma   92.08008565
_symmetry_Int_Tables_number   1
_chemical_formula_structural   ZnH16C23NO4
_chemical_formula_sum   'Zn6 H96 C138 N6 O24'
_cell_volume   4295.54002985
_cell_formula_units_Z   6
loop_
 _symmetry_equiv_pos_site_id
 _symmetry_equiv_pos_as_xyz
  1  'x, y, z'
loop_
 _atom_site_type_symbol
 _atom_site_label
 _atom_site_symmetry_multiplicity
 _atom_site_fract_x
 _atom_site_fract_y
 _atom_site_fract_z
 _atom_site_occupancy
 _atom_site_pbe_bader_charge
 _atom_site_pbe_bader_spin_density
 _atom_site_pbe_cm5_charge
 _atom_site_pbe_ddec_charge
 _atom_site_pbe_ddec_spin_density
 _atom_site_pbe_ddec_sum_bond_order
 _atom_site_pbe_magmom
Zn  Zn0  1  0.10139814  0.92033235  0.08859499  1  1.277122  0  0.669462  0.819811  0  2.411037  0
Zn  Zn1  1  0.89860165  0.91140210  0.07966615  1  1.281285  0  0.669476  0.819833  0  2.411089  0
Zn  Zn2  1  0.41599027  0.45741624  0.28965362  1  1.286618  0  0.671379  0.81673  0  2.434801  0
Zn  Zn3  1  0.58400684  0.71034430  0.54258388  1  1.286564  0  0.671383  0.816732  0  2.434708  0
Zn  Zn4  1  0.21161844  0.44651171  0.27712950  1  1.286724  0  0.669243  0.822104  0  2.384449  0
Zn  Zn5  1  0.78837878  0.72287346  0.55349129  1  1.286836  0  0.669314  0.822098  0  2.384406  0
H  H6  1  0.84689867  0.89712491  0.31660524  1  0.065507  0  0.101164  0.105323  0  1.01554  0
H  H7  1  0.15310498  0.68339253  0.10286703  1  0.065457  0  0.101137  0.105219  0  1.015615  0
H  H8  1  0.14878282  0.95595273  0.33397141  1  0.106835  0  0.09895  0.103576  0  1.060152  0
H  H9  1  0.85121976  0.66602849  0.04404515  1  0.107023  0  0.098941  0.1036  0  1.060206  0
H  H10  1  0.24267885  0.96448186  0.44874770  1  0.035257  0  0.08959  0.128113  0  1.016185  0
H  H11  1  0.75732201  0.55125281  0.03551765  1  0.035331  0  0.089582  0.128113  0  1.016223  0
H  H12  1  0.20053464  0.90733751  0.51064328  1  0.044439  0  0.088189  0.122111  0  1.00485  0
H  H13  1  0.79946901  0.48935845  0.09266209  1  0.044524  0  0.088204  0.122142  0  1.004819  0
H  H14  1  0.18168929  0.00764008  0.53416882  1  0.042807  0  0.093031  0.129108  0  0.991413  0
H  H15  1  0.81830747  0.46582962  0.99235820  1  0.042756  0  0.093015  0.129078  0  0.991407  0
H  H16  1  0.85332378  0.89099461  0.45541428  1  0.083883  0  0.103808  0.115768  0  1.014567  0
H  H17  1  0.14667874  0.54458356  0.10899992  1  0.083872  0  0.103836  0.115782  0  1.01454  0
H  H18  1  0.85005727  0.89507339  0.69098552  1  0.116607  0  0.104347  0.119912  0  1.013451  0
H  H19  1  0.14994379  0.30901386  0.10492642  1  0.116592  0  0.104349  0.119952  0  1.01342  0
H  H20  1  0.24264679  0.94853980  0.75713569  1  0.034823  0  0.090319  0.125311  0  0.997032  0
H  H21  1  0.75735411  0.24286592  0.05145945  1  0.034839  0  0.090335  0.125353  0  0.997117  0
H  H22  1  0.18257478  0.99878608  0.69630567  1  0.061908  0  0.096461  0.13599  0  0.985312  0
H  H23  1  0.81742326  0.30369502  0.00121388  1  0.061877  0  0.096467  0.136014  0  0.985363  0
H  H24  1  0.19819815  0.89893703  0.66143895  1  0.030445  0  0.08574  0.113935  0  1.037473  0
H  H25  1  0.80180343  0.33856074  0.10106292  1  0.030462  0  0.08574  0.11398  0  1.037411  0
H  H26  1  0.14750902  0.92709500  0.85954972  1  0.063065  0  0.100359  0.109742  0  1.012687  0
H  H27  1  0.85249045  0.14045125  0.07290393  1  0.063063  0  0.100384  0.109791  0  1.012642  0
H  H28  1  0.84217561  0.88976005  0.82955343  1  0.075711  0  0.10299  0.107344  0  1.014848  0
H  H29  1  0.15782476  0.17044561  0.11023777  1  0.075805  0  0.103002  0.107323  0  1.014816  0
H  H30  1  0.25032956  0.81463842  0.11354331  1  0.140766  0  0.124691  0.099446  0  1.010972  0
H  H31  1  0.74967035  0.88645537  0.18535911  1  0.140798  0  0.124678  0.099393  0  1.010972  0
H  H32  1  0.25628278  0.02635181  0.05940915  1  0.129789  0  0.129736  0.108367  0  0.980489  0
H  H33  1  0.74371797  0.94058894  0.97364347  1  0.129862  0  0.129764  0.108406  0  0.980468  0
H  H34  1  0.43587325  0.02917033  0.05266384  1  0.092809  0  0.115081  0.122501  0  0.984291  0
H  H35  1  0.56412622  0.94733473  0.97082520  1  0.092738  0  0.115076  0.122528  0  0.984272  0
H  H36  1  0.42952452  0.80962026  0.11375434  1  0.086889  0  0.113038  0.118777  0  1.006092  0
H  H37  1  0.57047478  0.88624491  0.19037730  1  0.086954  0  0.113045  0.118775  0  1.006088  0
H  H38  1  0.46555651  0.22471771  0.28312619  1  0.089434  0  0.100785  0.10516  0  1.026659  0
H  H39  1  0.53444354  0.71687733  0.77528707  1  0.089257  0  0.100779  0.105188  0  1.02664  0
H  H40  1  0.15914847  0.19654482  0.25682454  1  0.0939  0  0.104638  0.108363  0  1.010934  0
H  H41  1  0.84085042  0.74317500  0.80345758  1  0.094147  0  0.104639  0.108384  0  1.010965  0
H  H42  1  0.16836991  0.05790782  0.26186839  1  0.137072  0  0.105175  0.122466  0  1.019245  0
H  H43  1  0.83163189  0.73812915  0.94209349  1  0.136907  0  0.105178  0.122485  0  1.019291  0
H  H44  1  0.51110443  0.06200569  0.34930895  1  0.064905  0  0.093583  0.131973  0  1.007178  0
H  H45  1  0.48889789  0.65069252  0.93799761  1  0.064899  0  0.093603  0.132  0  1.007173  0
H  H46  1  0.56301582  0.12065202  0.29295606  1  0.032947  0  0.092815  0.130286  0  0.991968  0
H  H47  1  0.43698585  0.70704533  0.87934970  1  0.032981  0  0.092806  0.130239  0  0.991932  0
H  H48  1  0.51435276  0.02542700  0.24805078  1  0.03866  0  0.083804  0.114753  0  1.038737  0
H  H49  1  0.48564816  0.75195093  0.97457630  1  0.038594  0  0.083798  0.114739  0  1.038706  0
H  H50  1  0.52249340  0.88321778  0.31530277  1  0.042578  0  0.087975  0.119877  0  1.0133  0
H  H51  1  0.47750710  0.68469829  0.11678469  1  0.042517  0  0.087981  0.119879  0  1.013391  0
H  H52  1  0.53775700  0.83245963  0.38870274  1  0.042049  0  0.095021  0.145359  0  1.000262  0
H  H53  1  0.46224102  0.61129971  0.16754311  1  0.042069  0  0.095017  0.145338  0  1.000252  0
H  H54  1  0.46885327  0.91682562  0.40446566  1  0.050738  0  0.091007  0.126949  0  1.016516  0
H  H55  1  0.53114471  0.59553488  0.08317603  1  0.050775  0  0.091  0.126914  0  1.016543  0
H  H56  1  0.17523351  0.82037880  0.24487891  1  0.109713  0  0.105677  0.116884  0  1.011395  0
H  H57  1  0.82476601  0.75512152  0.17962325  1  0.109771  0  0.105705  0.116947  0  1.011327  0
H  H58  1  0.16878703  0.68100614  0.24839521  1  0.086337  0  0.101295  0.105443  0  1.02317  0
H  H59  1  0.83121460  0.75160406  0.31899781  1  0.086692  0  0.101315  0.105556  0  1.023212  0
H  H60  1  0.45343586  0.71197887  0.35522205  1  0.119928  0  0.10283  0.109645  0  1.061276  0
H  H61  1  0.54656432  0.64477887  0.28802345  1  0.119505  0  0.10283  0.109651  0  1.061314  0
H  H62  1  0.47875943  0.45704098  0.05509349  1  0.08769  0  0.101251  0.109398  0  1.016006  0
H  H63  1  0.52123925  0.94490956  0.54296323  1  0.087704  0  0.101275  0.109416  0  1.016062  0
H  H64  1  0.17381430  0.41369425  0.02831628  1  0.1085  0  0.100849  0.10382  0  1.044391  0
H  H65  1  0.82618738  0.97167969  0.58629959  1  0.108583  0  0.100915  0.103912  0  1.044407  0
H  H66  1  0.17825055  0.42002405  0.89047908  1  0.078592  0  0.105208  0.109643  0  0.98686  0
H  H67  1  0.82175385  0.10951616  0.57996661  1  0.078443  0  0.105188  0.109649  0  0.986855  0
H  H68  1  0.57061202  0.48071697  0.95278147  1  0.039182  0  0.090629  0.12621  0  1.004369  0
H  H69  1  0.42938950  0.04722414  0.51928667  1  0.039281  0  0.090618  0.126197  0  1.004411  0
H  H70  1  0.50924608  0.51893214  0.88239266  1  0.04695  0  0.090808  0.126146  0  1.018175  0
H  H71  1  0.49075696  0.11761060  0.48107219  1  0.046924  0  0.090792  0.126136  0  1.018174  0
H  H72  1  0.52997611  0.41928625  0.86107920  1  0.04175  0  0.095872  0.134629  0  0.983278  0
H  H73  1  0.47003165  0.13892451  0.58071801  1  0.041814  0  0.095881  0.13464  0  0.983204  0
H  H74  1  0.18689772  0.39917785  0.64590182  1  0.074638  0  0.102777  0.105384  0  0.993648  0
H  H75  1  0.81310373  0.35409976  0.60081921  1  0.074716  0  0.102803  0.105435  0  0.993679  0
H  H76  1  0.53451665  0.49287187  0.70471723  1  0.048574  0  0.095195  0.135071  0  0.982904  0
H  H77  1  0.46548365  0.29528359  0.50713035  1  0.048636  0  0.0952  0.13508  0  0.982846  0
H  H78  1  0.46412515  0.56820504  0.75437680  1  0.078971  0  0.086537  0.119712  0  1.022763  0
H  H79  1  0.53587296  0.24562286  0.43179624  1  0.07899  0  0.086562  0.119729  0  1.022725  0
H  H80  1  0.52570575  0.57790651  0.67101135  1  0.068769  0  0.093275  0.141412  0  1.006803  0
H  H81  1  0.47429347  0.32898867  0.42209460  1  0.068802  0  0.093235  0.141378  0  1.006765  0
H  H82  1  0.45225630  0.53173290  0.54473911  1  0.114735  0  0.102195  0.113355  0  1.052652  0
H  H83  1  0.54774398  0.45525763  0.46826550  1  0.115054  0  0.1022  0.113392  0  1.05266  0
H  H84  1  0.17865899  0.40660573  0.50747741  1  0.070394  0  0.104395  0.112549  0  0.993908  0
H  H85  1  0.82133862  0.49252253  0.59339106  1  0.070437  0  0.104409  0.112571  0  0.993911  0
H  H86  1  0.55243627  0.34145237  0.22074828  1  0.098381  0  0.126641  0.102323  0  0.978527  0
H  H87  1  0.44755901  0.77925176  0.65855195  1  0.09827  0  0.126625  0.102283  0  0.978547  0
H  H88  1  0.58279015  0.56004430  0.37259309  1  0.152765  0  0.125869  0.105746  0  1.005131  0
H  H89  1  0.41720667  0.62740713  0.43995934  1  0.152769  0  0.12592  0.105789  0  1.005088  0
H  H90  1  0.76081868  0.55959921  0.37209779  1  0.107272  0  0.112939  0.127101  0  1.015892  0
H  H91  1  0.23917749  0.62790003  0.44040383  1  0.107542  0  0.112922  0.127102  0  1.015938  0
H  H92  1  0.73043127  0.33069960  0.21376297  1  0.097898  0  0.11183  0.117982  0  1.009045  0
H  H93  1  0.26956340  0.78623514  0.66930504  1  0.097763  0  0.111789  0.117887  0  1.00912  0
H  H94  1  0.88415928  0.56745198  0.28950724  1  0.099888  0  0.115491  0.125314  0  0.992223  0
H  H95  1  0.11583841  0.71049451  0.43255561  1  0.100041  0  0.115501  0.125318  0  0.992297  0
H  H96  1  0.87767843  0.32222962  0.27904193  1  0.088955  0  0.117355  0.125011  0  0.980926  0
H  H97  1  0.12231657  0.72096004  0.67777702  1  0.088771  0  0.117385  0.125034  0  0.980952  0
H  H98  1  0.05611909  0.32827878  0.27101664  1  0.148367  0  0.127119  0.103675  0  0.993781  0
H  H99  1  0.94387618  0.72898366  0.67172639  1  0.148197  0  0.127092  0.103624  0  0.993773  0
H  H100  1  0.06276670  0.56242922  0.28157856  1  0.137818  0  0.122366  0.097847  0  1.003904  0
H  H101  1  0.93723173  0.71842482  0.43757776  1  0.137999  0  0.122307  0.097755  0  1.004015  0
C  C102  1  0.99571431  0.92839558  0.23367044  1  1.557449  0  0.212772  0.586856  0  4.169764  0
C  C103  1  0.00428596  0.76632948  0.07159686  1  1.557682  0  0.212724  0.586708  0  4.169779  0
C  C104  1  0.99764472  0.92739126  0.31729988  1  0.019676  0  -0.021312  -0.029983  0  3.990012  0
C  C105  1  0.00236052  0.68270168  0.07260225  1  0.019244  0  -0.021246  -0.029829  0  3.989823  0
C  C106  1  0.91402325  0.90904700  0.35132928  1  -0.07263  0  -0.091216  -0.105035  0  4.014017  0
C  C107  1  0.08598114  0.64866986  0.09094963  1  -0.071994  0  -0.091155  -0.104879  0  4.013974  0
C  C108  1  0.08439843  0.94244774  0.36153938  1  -0.108012  0  -0.089895  -0.163705  0  3.951859  0
C  C109  1  0.91560346  0.63846149  0.05754901  1  -0.10824  0  -0.089982  -0.163923  0  3.951866  0
C  C110  1  0.09017784  0.93995876  0.43894521  1  0.029116  0  -0.002033  0.132822  0  3.927127  0
C  C111  1  0.90982456  0.56105555  0.06003585  1  0.02964  0  -0.002002  0.132853  0  3.927211  0
C  C112  1  0.18396115  0.95573202  0.48524885  1  -0.059127  0  -0.237215  -0.403642  0  3.976604  0
C  C113  1  0.81603978  0.51475167  0.04426520  1  -0.059657  0  -0.237232  -0.403668  0  3.976659  0
C  C114  1  0.91745478  0.90584228  0.42824774  1  -0.002752  0  -0.085913  -0.124143  0  3.959529  0
C  C115  1  0.08255029  0.57174861  0.09414785  1  -0.003308  0  -0.085947  -0.124149  0  3.959498  0
C  C116  1  0.00485895  0.92189885  0.47299814  1  0.086211  0  -0.004174  0.067271  0  4.090162  0
C  C117  1  0.99514221  0.52700148  0.07809357  1  0.086156  0  -0.00418  0.067312  0  4.090041  0
C  C118  1  0.00666155  0.92064157  0.55180510  1  -0.053547  0  -0.039374  -0.094183  0  4.115854  0
C  C119  1  0.99333824  0.44819334  0.07935676  1  -0.053692  0  -0.03935  -0.09421  0  4.116172  0
C  C120  1  0.00633527  0.92030893  0.62018083  1  -0.334833  0  -0.037701  -0.091076  0  4.113376  0
C  C121  1  0.99366411  0.37982402  0.07968715  1  -0.334416  0  -0.037681  -0.091007  0  4.113671  0
C  C122  1  0.00339703  0.91757216  0.69842499  1  0.047217  0  -0.005308  0.066821  0  4.093162  0
C  C123  1  0.99660117  0.30157589  0.08242495  1  0.046786  0  -0.005392  0.066719  0  4.093223  0
C  C124  1  0.91456682  0.90378903  0.72894018  1  -0.004398  0  -0.082402  -0.116796  0  3.946903  0
C  C125  1  0.08543189  0.27106091  0.09620740  1  -0.004265  0  -0.082392  -0.116887  0  3.946897  0
C  C126  1  0.08924383  0.92719366  0.74580393  1  0.013022  0  -0.006457  0.121256  0  3.95222  0
C  C127  1  0.91075705  0.25419434  0.07280270  1  0.012988  0  -0.006331  0.121495  0  3.952197  0
C  C128  1  0.18331797  0.94406634  0.71397482  1  -0.07724  0  -0.237979  -0.407629  0  3.995641  0
C  C129  1  0.81668120  0.28602518  0.05593212  1  -0.077212  0  -0.238033  -0.407816  0  3.995703  0
C  C130  1  0.08305749  0.92081517  0.82170657  1  -0.040829  0  -0.092846  -0.168197  0  3.964547  0
C  C131  1  0.91694298  0.17829290  0.07918231  1  -0.040685  0  -0.092885  -0.168251  0  3.9646  0
C  C132  1  0.91041832  0.89985415  0.80540051  1  -0.027508  0  -0.088793  -0.102012  0  4.005253  0
C  C133  1  0.08958246  0.19460085  0.10014500  1  -0.027514  0  -0.088739  -0.1018  0  4.005115  0
C  C134  1  0.99478217  0.90752094  0.85218560  1  -0.024346  0  -0.020307  -0.027552  0  3.9876  0
C  C135  1  0.00521948  0.14781383  0.09247447  1  -0.024658  0  -0.02036  -0.027822  0  3.987834  0
C  C136  1  0.99110014  0.90355047  0.93482991  1  1.559186  0  0.212113  0.591475  0  4.16787  0
C  C137  1  0.00890020  0.06516985  0.09644585  1  1.559291  0  0.212212  0.591737  0  4.167766  0
C  C138  1  0.29503200  0.86084639  0.10105562  1  0.511501  0  0.062588  0.112699  0  3.911636  0
C  C139  1  0.70496824  0.89894265  0.13914990  1  0.511833  0  0.062583  0.112716  0  3.911667  0
C  C140  1  0.29838101  0.97921654  0.06934005  1  0.47958  0  0.063031  0.109422  0  3.910303  0
C  C141  1  0.70161867  0.93065629  0.02077911  1  0.479435  0  0.062973  0.109344  0  3.910248  0
C  C142  1  0.39756416  0.98011132  0.06577521  1  0.004649  0  -0.076221  -0.175435  0  3.94437  0
C  C143  1  0.60243414  0.93422222  0.01988567  1  0.004876  0  -0.076204  -0.175441  0  3.944301  0
C  C144  1  0.39416841  0.85847529  0.10054498  1  -0.007362  0  -0.07381  -0.170911  0  3.945101  0
C  C145  1  0.60583224  0.89945238  0.14152003  1  -0.007504  0  -0.073869  -0.170929  0  3.945184  0
C  C146  1  0.44731993  0.91887736  0.08215934  1  -0.031676  0  0.015382  0.1029  0  3.996142  0
C  C147  1  0.55267742  0.91783739  0.08111852  1  -0.099291  0  0.015407  0.10287  0  3.996238  0
C  C148  1  0.30798799  0.30212608  0.26982474  1  1.554231  0  0.214672  0.588752  0  4.174274  0
C  C149  1  0.69201217  0.73017305  0.69787444  1  1.554238  0  0.214684  0.588829  0  4.174186  0
C  C150  1  0.31211876  0.21863850  0.27022959  1  -0.057201  0  -0.020268  -0.030045  0  3.991119  0
C  C151  1  0.68788036  0.72977112  0.78136276  1  -0.057045  0  -0.020302  -0.030119  0  3.991219  0
C  C152  1  0.40116996  0.18725499  0.27887880  1  -0.055684  0  -0.090363  -0.165136  0  3.970433  0
C  C153  1  0.59882933  0.72112423  0.81274838  1  -0.055529  0  -0.090333  -0.165094  0  3.970291  0
C  C154  1  0.22795056  0.17200344  0.26422997  1  -0.017854  0  -0.086038  -0.097044  0  4.002464  0
C  C155  1  0.77205023  0.73576971  0.82799809  1  -0.018118  0  -0.08603  -0.097062  0  4.002592  0
C  C156  1  0.23290006  0.09553185  0.26789455  1  -0.041997  0  -0.081791  -0.113095  0  3.934572  0
C  C157  1  0.76710217  0.73210442  0.90446990  1  -0.041899  0  -0.081804  -0.113084  0  3.934657  0
C  C158  1  0.40857347  0.11106521  0.28375959  1  0.014247  0  -0.007199  0.119627  0  3.953666  0
C  C159  1  0.59142787  0.71624156  0.88893869  1  0.014491  0  -0.007164  0.119648  0  3.953496  0
C  C160  1  0.50431973  0.07845642  0.29405043  1  -0.082381  0  -0.238187  -0.406476  0  3.985086  0
C  C161  1  0.49568270  0.70595099  0.92154737  1  -0.082334  0  -0.238231  -0.406466  0  3.985012  0
C  C162  1  0.32251790  0.06483915  0.27897962  1  0.084676  0  -0.004121  0.068883  0  4.086907  0
C  C163  1  0.67748481  0.72102057  0.93516287  1  0.084382  0  -0.004081  0.06887  0  4.087123  0
C  C164  1  0.32510987  0.98790110  0.28594294  1  -0.161826  0  -0.036726  -0.087355  0  4.106734  0
C  C165  1  0.67489069  0.71405569  0.01209744  1  -0.162094  0  -0.036819  -0.087478  0  4.106552  0
C  C166  1  0.32290652  0.92134754  0.29233954  1  -0.23112  0  -0.039129  -0.101242  0  4.135512  0
C  C167  1  0.67709513  0.70765859  0.07865661  1  -0.230783  0  -0.039041  -0.101185  0  4.135151  0
C  C168  1  0.31881302  0.84369093  0.29733852  1  0.077408  0  -0.004418  0.065266  0  4.093443  0
C  C169  1  0.68118526  0.70266023  0.15631211  1  0.077377  0  -0.004535  0.065142  0  4.093395  0
C  C170  1  0.39843073  0.81354533  0.32975037  1  -0.018099  0  -0.00218  0.135033  0  3.923615  0
C  C171  1  0.60156675  0.67025017  0.18645704  1  -0.01813  0  -0.002142  0.135263  0  3.923373  0
C  C172  1  0.48664065  0.86374682  0.36143097  1  -0.069266  0  -0.238727  -0.406905  0  3.960086  0
C  C173  1  0.51335714  0.63857009  0.13625552  1  -0.069278  0  -0.238722  -0.406904  0  3.960153  0
C  C174  1  0.23561793  0.79584483  0.26916215  1  -0.028903  0  -0.086626  -0.125524  0  3.961007  0
C  C175  1  0.76438195  0.73083677  0.20415820  1  -0.028902  0  -0.086547  -0.125442  0  3.960873  0
C  C176  1  0.23198481  0.71856510  0.27124886  1  -0.128681  0  -0.09362  -0.112112  0  4.012275  0
C  C177  1  0.76801577  0.72874987  0.28143744  1  -0.12993  0  -0.093692  -0.112366  0  4.012324  0
C  C178  1  0.39287658  0.73572016  0.33049940  1  -0.02614  0  -0.089676  -0.16587  0  3.9518  0
C  C179  1  0.60712432  0.66950025  0.26428206  1  -0.026054  0  -0.089695  -0.165986  0  3.95184  0
C  C180  1  0.31160555  0.68759605  0.30051137  1  0.013163  0  -0.02301  -0.035241  0  4.007174  0
C  C181  1  0.68839423  0.69948663  0.31240568  1  0.013974  0  -0.022955  -0.035043  0  4.007055  0
C  C182  1  0.31175321  0.60315510  0.29754439  1  1.534107  0  0.213757  0.577493  0  4.186882  0
C  C183  1  0.68824905  0.70245361  0.39684643  1  1.533249  0  0.213544  0.577011  0  4.187313  0
C  C184  1  0.32426427  0.43672629  0.13405827  1  1.548653  0  0.210926  0.581885  0  4.178336  0
C  C185  1  0.67573731  0.86594088  0.56327261  1  1.548552  0  0.210892  0.581813  0  4.178345  0
C  C186  1  0.32642461  0.43584418  0.05005450  1  -0.048684  0  -0.021432  -0.030434  0  3.990365  0
C  C187  1  0.67357537  0.94994576  0.56415554  1  -0.048703  0  -0.021471  -0.030382  0  3.990506  0
C  C188  1  0.41354372  0.44930468  0.01796664  1  -0.02745  0  -0.089657  -0.164952  0  3.96266  0
C  C189  1  0.58645792  0.98203291  0.55069526  1  -0.027487  0  -0.089638  -0.164912  0  3.962643  0
C  C190  1  0.24142823  0.42453861  0.00355437  1  -0.017583  0  -0.089557  -0.103743  0  4.010341  0
C  C191  1  0.75857494  0.99644484  0.57545961  1  -0.017743  0  -0.089607  -0.103863  0  4.010198  0
C  C192  1  0.24400902  0.42822138  0.92695169  1  -0.035975  0  -0.084635  -0.121518  0  3.967781  0
C  C193  1  0.75599639  0.07304710  0.57177455  1  -0.035899  0  -0.084704  -0.120852  0  3.9682  0
C  C194  1  0.41812033  0.45409079  0.94139113  1  -0.005533  0  -0.004087  0.124534  0  3.935461  0
C  C195  1  0.58188163  0.05860971  0.54590686  1  -0.005463  0  -0.004063  0.125256  0  3.935892  0
C  C196  1  0.51198162  0.46922137  0.90814425  1  -0.049667  0  -0.234973  -0.407168  0  3.982894  0
C  C197  1  0.48802312  0.09185890  0.53078162  1  -0.049753  0  -0.23499  -0.407147  0  3.982857  0
C  C198  1  0.33126366  0.44391942  0.89506751  1  0.032771  0  -0.002995  0.078978  0  4.079148  0
C  C199  1  0.66873996  0.10493032  0.55607559  1  0.03313  0  -0.002833  0.076907  0  4.08245  0
C  C200  1  0.33085625  0.44998310  0.81753077  1  0.020199  0  -0.043171  -0.104363  0  4.130895  0
C  C201  1  0.66914925  0.18246638  0.55000975  1  0.018879  0  -0.043306  -0.103875  0  4.131519  0
C  C202  1  0.32801868  0.45580778  0.75067918  1  -0.39424  0  -0.044881  -0.101863  0  4.130743  0
C  C203  1  0.67198480  0.24932051  0.54418826  1  -0.393231  0  -0.044786  -0.101655  0  4.130491  0
C  C204  1  0.32414004  0.46185446  0.67308718  1  0.07533  0  -0.003345  0.072287  0  4.085  0
C  C205  1  0.67585981  0.32691222  0.53814572  1  0.075585  0  -0.003409  0.072121  0  4.085105  0
C  C206  1  0.24435278  0.42863646  0.62311469  1  -0.062012  0  -0.089166  -0.128642  0  3.990874  0
C  C207  1  0.75565071  0.37688472  0.57136116  1  -0.062095  0  -0.089184  -0.128679  0  3.990813  0
C  C208  1  0.39993659  0.50076180  0.64487009  1  0.013602  0  -0.001207  0.136006  0  3.916263  0
C  C209  1  0.60005984  0.35512662  0.49923398  1  0.013426  0  -0.001203  0.136058  0  3.916243  0
C  C210  1  0.48543884  0.53728546  0.69634209  1  -0.130234  0  -0.239949  -0.410335  0  3.963564  0
C  C211  1  0.51456178  0.30365741  0.46271558  1  -0.130228  0  -0.239951  -0.410362  0  3.963591  0
C  C212  1  0.39396967  0.50298533  0.56731947  1  -0.051346  0  -0.088823  -0.162648  0  3.938424  0
C  C213  1  0.60602906  0.43268052  0.49701501  1  -0.051548  0  -0.08882  -0.162666  0  3.938481  0
C  C214  1  0.23968377  0.43250438  0.54637571  1  0.026155  0  -0.090885  -0.106185  0  4.016431  0
C  C215  1  0.76031433  0.45362609  0.56749465  1  0.026169  0  -0.0909  -0.10619  0  4.016457  0
C  C216  1  0.31552338  0.46883499  0.51763661  1  -0.047587  0  -0.0225  -0.031439  0  3.995983  0
C  C217  1  0.68447559  0.48236230  0.53116150  1  -0.047718  0  -0.022495  -0.031447  0  3.996152  0
C  C218  1  0.31505492  0.46878599  0.43382910  1  1.552527  0  0.21206  0.580751  0  4.183449  0
C  C219  1  0.68493774  0.56616951  0.53121310  1  1.553029  0  0.212091  0.580762  0  4.183433  0
C  C220  1  0.60216460  0.38809749  0.25277435  1  0.559267  0  0.057301  0.106797  0  3.923609  0
C  C221  1  0.39783080  0.74722558  0.61190586  1  0.559285  0  0.057411  0.106859  0  3.923519  0
C  C222  1  0.61842304  0.51097666  0.33719465  1  0.490186  0  0.06103  0.113192  0  3.898531  0
C  C223  1  0.38157396  0.66280640  0.48902839  1  0.4903  0  0.060991  0.113155  0  3.898569  0
C  C224  1  0.71778545  0.51037984  0.33644382  1  0.004368  0  -0.073557  -0.163952  0  3.904625  0
C  C225  1  0.28221150  0.66355413  0.48962255  1  0.004024  0  -0.073455  -0.163914  0  3.904775  0
C  C226  1  0.70080769  0.38268828  0.24971267  1  -0.067871  0  -0.078932  -0.180614  0  3.953734  0
C  C227  1  0.29918677  0.75028432  0.61731533  1  -0.067721  0  -0.078956  -0.180519  0  3.953728  0
C  C228  1  0.76079115  0.44567565  0.29090560  1  -0.036434  0  0.017526  0.109011  0  3.980119  0
C  C229  1  0.23920452  0.70909055  0.55432844  1  -0.036481  0  0.017462  0.108902  0  3.980263  0
C  C230  1  0.86581370  0.44497616  0.28584198  1  0.005793  0  0.018985  0.109212  0  3.979837  0
C  C231  1  0.13418277  0.71415800  0.55502887  1  0.006035  0  0.019011  0.109402  0  3.979895  0
C  C232  1  0.91932267  0.51331755  0.28665219  1  -0.018387  0  -0.073747  -0.165505  0  3.92469  0
C  C233  1  0.08067337  0.71334916  0.48668900  1  -0.018993  0  -0.073782  -0.165637  0  3.924952  0
C  C234  1  0.91533616  0.37690091  0.27952545  1  -0.02963  0  -0.072874  -0.167934  0  3.93152  0
C  C235  1  0.08466190  0.72047548  0.62310457  1  -0.029637  0  -0.072918  -0.168032  0  3.931647  0
C  C236  1  0.01441872  0.37956440  0.27552393  1  0.505892  0  0.063076  0.110621  0  3.911887  0
C  C237  1  0.98557874  0.72448030  0.62044133  1  0.505891  0  0.063116  0.110688  0  3.911845  0
C  C238  1  0.01808632  0.51113584  0.28175313  1  0.431678  0  0.057745  0.103032  0  3.925803  0
C  C239  1  0.98191027  0.71824828  0.48886928  1  0.432042  0  0.057797  0.103139  0  3.925703  0
N  N240  1  0.24815853  0.92032241  0.08621066  1  -1.239486  0  -0.318166  -0.199454  0  3.509867  0
N  N241  1  0.75184298  0.91378667  0.07967290  1  -1.239503  0  -0.318149  -0.199454  0  3.509948  0
N  N242  1  0.56175423  0.45157976  0.29507637  1  -1.269265  0  -0.322957  -0.203238  0  3.521245  0
N  N243  1  0.43824349  0.70492453  0.54842429  1  -1.268954  0  -0.32299  -0.203178  0  3.521097  0
N  N244  1  0.06495751  0.44554852  0.27674898  1  -1.24514  0  -0.318429  -0.201069  0  3.516091  0
N  N245  1  0.93503824  0.72325250  0.55445791  1  -1.245235  0  -0.31841  -0.201046  0  3.515884  0
O  O246  1  0.07031998  0.89848007  0.97041764  1  -1.169338  0  -0.321929  -0.555402  0  2.321574  0
O  O247  1  0.92968126  0.02957957  0.10151520  1  -1.169238  0  -0.32196  -0.555497  0  2.321627  0
O  O248  1  0.90870989  0.90635818  0.96376556  1  -1.166806  0  -0.315714  -0.54816  0  2.339564  0
O  O249  1  0.09129186  0.03623342  0.09363812  1  -1.166851  0  -0.315799  -0.548293  0  2.339438  0
O  O250  1  0.91502601  0.91397567  0.19588262  1  -1.175131  0  -0.315944  -0.551511  0  2.349441  0
O  O251  1  0.08497674  0.80411632  0.08601948  1  -1.175149  0  -0.315929  -0.551459  0  2.34931  0
O  O252  1  0.07513722  0.94232245  0.20567886  1  -1.169579  0  -0.311509  -0.546514  0  2.353767  0
O  O253  1  0.92486044  0.79431972  0.05766958  1  -1.169441  0  -0.311518  -0.546504  0  2.353768  0
O  O254  1  0.38784507  0.34093390  0.27807787  1  -1.18081  0  -0.317725  -0.559581  0  2.371639  0
O  O255  1  0.61215661  0.72192006  0.65906580  1  -1.180757  0  -0.317732  -0.559579  0  2.371565  0
O  O256  1  0.22579719  0.32877664  0.26254537  1  -1.162696  0  -0.311897  -0.54168  0  2.34359  0
O  O257  1  0.77420252  0.73745439  0.67122479  1  -1.16268  0  -0.311882  -0.541701  0  2.34357  0
O  O258  1  0.39358985  0.57404792  0.29962915  1  -1.16719  0  -0.30913  -0.539367  0  2.344685  0
O  O259  1  0.60641132  0.70035893  0.42595035  1  -1.167137  0  -0.30902  -0.539181  0  2.344853  0
O  O260  1  0.23082991  0.56648809  0.29315425  1  -1.175857  0  -0.315906  -0.556938  0  2.343462  0
O  O261  1  0.76917170  0.70685255  0.43351552  1  -1.175035  0  -0.315887  -0.556751  0  2.343495  0
O  O262  1  0.40456607  0.44074853  0.17142674  1  -1.168794  0  -0.321689  -0.548391  0  2.333597  0
O  O263  1  0.59543741  0.82857087  0.55924762  1  -1.168818  0  -0.32166  -0.548359  0  2.333636  0
O  O264  1  0.24190014  0.43507006  0.16255213  1  -1.166143  0  -0.312945  -0.54822  0  2.352922  0
O  O265  1  0.75810343  0.83745020  0.56493664  1  -1.166097  0  -0.312959  -0.548207  0  2.352868  0
O  O266  1  0.39651075  0.47832718  0.40639436  1  -1.164054  0  -0.313977  -0.546166  0  2.364269  0
O  O267  1  0.60348042  0.59360200  0.52167661  1  -1.164155  0  -0.314018  -0.546166  0  2.364189  0
O  O268  1  0.23478435  0.45869651  0.39560093  1  -1.174317  0  -0.320426  -0.552994  0  2.31345  0
O  O269  1  0.76520654  0.60440172  0.54129987  1  -1.174758  0  -0.320445  -0.553005  0  2.313554  0
