# generated using pymatgen
data_La2Ni3H30C24(NO4)6
_symmetry_space_group_name_H-M   'P 1'
_cell_length_a   7.46910017
_cell_length_b   13.34821672
_cell_length_c   13.34777648
_cell_angle_alpha   120.00004364
_cell_angle_beta   90.00009368
_cell_angle_gamma   90.00184254
_symmetry_Int_Tables_number   1
_chemical_formula_structural   La2Ni3H30C24(NO4)6
_chemical_formula_sum   'La2 Ni3 H30 C24 N6 O24'
_cell_volume   1152.47336989
_cell_formula_units_Z   1
loop_
 _symmetry_equiv_pos_site_id
 _symmetry_equiv_pos_as_xyz
  1  'x, y, z'
loop_
 _atom_site_type_symbol
 _atom_site_label
 _atom_site_symmetry_multiplicity
 _atom_site_fract_x
 _atom_site_fract_y
 _atom_site_fract_z
 _atom_site_occupancy
 _atom_site_hle17_ddec_charge
 _atom_site_hle17_ddec_spin_density
 _atom_site_hle17_ddec_sum_bond_order
 _atom_site_hle17_magmom
 _atom_site_hse06_10hf_ddec_charge
 _atom_site_hse06_10hf_ddec_spin_density
 _atom_site_hse06_10hf_ddec_sum_bond_order
 _atom_site_hse06_10hf_magmom
 _atom_site_hse06_ddec_charge
 _atom_site_hse06_ddec_spin_density
 _atom_site_hse06_ddec_sum_bond_order
 _atom_site_hse06_magmom
 _atom_site_pbe_cm5_charge
 _atom_site_pbe_ddec_charge
 _atom_site_pbe_ddec_spin_density
 _atom_site_pbe_ddec_sum_bond_order
 _atom_site_pbe_magmom
La  La0  1  0.66167923  0.33334059  0.66667510  1  2.079801  0.011347  1.788298  0.004  1.960044  0.0026  2.326887  0.002  2.066738  0.001771  2.224324  0.001  1.401328  1.879488  0.003655  2.397915  0.002
La  La1  1  0.33832273  0.66665932  0.33332805  1  2.079874  0.011508  1.788224  0.004  1.960127  0.002597  2.3268  0.002  2.066821  0.001769  2.224237  0.001  1.40135  1.879562  0.003655  2.397847  0.002
Ni  Ni2  1  0.00000096  0.50000105  0.00000063  1  0.714992  0.02197  2.116586  0.023  0.72294  0.022476  2.519061  0.025  0.825378  0.018599  2.440514  0.022  0.619429  0.652555  0.02385  2.57591  0.025
Ni  Ni3  1  0.99999934  0.00000075  0.50000023  1  0.714861  0.021963  2.116277  0.023  0.722821  0.022489  2.518806  0.025  0.825316  0.018613  2.440184  0.022  0.61944  0.652411  0.023862  2.575686  0.025
Ni  Ni4  1  0.00000166  0.49999811  0.49999929  1  0.714798  0.021988  2.116734  0.023  0.722896  0.022461  2.519253  0.025  0.825326  0.018587  2.440765  0.022  0.619427  0.652503  0.02383  2.576094  0.025
H  H5  1  0.29308947  0.26133060  0.82033236  1  0.117812  -0.0006  0.926785  -0.001  0.128809  -0.000342  0.990986  0.0  0.132069  -0.000284  0.988377  0.0  0.123224  0.12642  -0.000378  0.992902  0.0
H  H6  1  0.29310534  0.17966332  0.44098396  1  0.117711  -0.000601  0.926892  -0.001  0.128756  -0.000343  0.991026  0.0  0.132016  -0.000285  0.988412  0.0  0.123197  0.126365  -0.000379  0.992952  0.0
H  H7  1  0.29310325  0.55902371  0.73868091  1  0.117678  -0.0006  0.926787  -0.001  0.128828  -0.000342  0.990895  0.0  0.132095  -0.000284  0.988283  0.0  0.12321  0.126405  -0.000378  0.992842  0.0
H  H8  1  0.70691516  0.73866931  0.17967228  1  0.11778  -0.0006  0.926818  -0.001  0.12875  -0.000342  0.991041  0.0  0.132012  -0.000285  0.988432  0.0  0.123188  0.126362  -0.000378  0.992945  0.0
H  H9  1  0.70688992  0.82033659  0.55901544  1  0.11771  -0.000601  0.926888  -0.001  0.128759  -0.000343  0.991037  0.0  0.132021  -0.000285  0.988425  0.0  0.123202  0.126367  -0.000379  0.992963  0.0
H  H10  1  0.70689335  0.44097273  0.26131601  1  0.117627  -0.0006  0.926896  -0.001  0.128809  -0.000342  0.990956  0.0  0.132077  -0.000284  0.988343  0.0  0.12322  0.126396  -0.000378  0.992891  0.0
H  H11  1  0.40765863  0.34136758  0.95351917  1  0.121922  -0.000769  0.891121  -0.001  0.139278  -0.000504  0.940805  0.0  0.141572  -0.000389  0.939641  0.0  0.128809  0.137557  -0.000592  0.941894  -0.001
H  H12  1  0.40763733  0.04647677  0.38784502  1  0.1219  -0.000769  0.891159  -0.001  0.139251  -0.000503  0.940833  0.0  0.141543  -0.000388  0.939668  0.0  0.128794  0.137537  -0.000591  0.941927  -0.001
H  H13  1  0.40763653  0.61214639  0.65861001  1  0.121796  -0.000768  0.891097  -0.001  0.139235  -0.000503  0.940777  0.0  0.141537  -0.000388  0.939608  0.0  0.128769  0.137517  -0.000591  0.941864  -0.001
H  H14  1  0.59234333  0.65863579  0.04648645  1  0.12188  -0.00077  0.891062  -0.001  0.139222  -0.000504  0.940754  0.0  0.141517  -0.000389  0.939588  0.0  0.128785  0.137481  -0.000592  0.941867  -0.001
H  H15  1  0.59235793  0.95352487  0.61215524  1  0.121859  -0.000769  0.891138  -0.001  0.139224  -0.000503  0.940817  0.0  0.141519  -0.000389  0.93965  0.0  0.128774  0.137503  -0.000591  0.941916  -0.001
H  H16  1  0.59236275  0.38785093  0.34138809  1  0.121798  -0.000768  0.891081  -0.001  0.139222  -0.000503  0.940763  0.0  0.141524  -0.000388  0.939594  0.0  0.12876  0.13749  -0.000591  0.941863  -0.001
H  H17  1  0.15810326  0.36678766  0.04950883  1  0.270939  0.000249  0.944392  0.001  0.258439  -0.00041  1.005418  0.0  0.266235  -0.00022  1.001021  0.0  0.294635  0.252866  -0.000541  1.008762  0.0
H  H18  1  0.15807754  0.95049624  0.31727348  1  0.270957  0.000249  0.944132  0.001  0.258542  -0.00041  1.005142  0.0  0.266336  -0.000219  1.000753  0.0  0.294721  0.252959  -0.000541  1.00848  0.0
H  H19  1  0.15807968  0.68271768  0.63321263  1  0.271028  0.000249  0.944085  0.001  0.258635  -0.000409  1.005084  0.0  0.266431  -0.000219  1.000686  0.0  0.294741  0.253051  -0.00054  1.008429  0.0
H  H20  1  0.84189467  0.63321225  0.95049281  1  0.270985  0.000249  0.944262  0.001  0.258471  -0.00041  1.005343  0.0  0.266272  -0.00022  1.000935  0.0  0.294621  0.252883  -0.000541  1.008689  0.0
H  H21  1  0.84192039  0.04950367  0.68272592  1  0.270984  0.000249  0.944149  0.001  0.258528  -0.00041  1.005155  0.0  0.26632  -0.00022  1.000769  0.0  0.29472  0.252947  -0.000541  1.008496  0.0
H  H22  1  0.84192094  0.31728050  0.36678665  1  0.271024  0.000249  0.944075  0.001  0.258606  -0.000409  1.005069  0.0  0.266403  -0.000219  1.000672  0.0  0.294723  0.25302  -0.00054  1.008412  0.0
H  H23  1  0.91171418  0.25366781  0.97382628  1  0.104075  -6.5e-05  0.914553  0.0  0.11885  -0.000126  0.973394  0.0  0.121444  -7.7e-05  0.970932  0.0  0.118738  0.116866  -0.000186  0.97542  0.0
H  H24  1  0.91168928  0.02616852  0.27983572  1  0.10402  -6.5e-05  0.914496  0.0  0.118812  -0.000126  0.973354  0.0  0.121414  -7.7e-05  0.970897  0.0  0.118743  0.11683  -0.000186  0.975374  0.0
H  H25  1  0.91172189  0.72018257  0.74636073  1  0.104068  -6.5e-05  0.914528  0.0  0.11895  -0.000126  0.973267  0.0  0.12155  -7.7e-05  0.970805  0.0  0.118825  0.116965  -0.000186  0.975296  0.0
H  H26  1  0.08828242  0.74633469  0.02617142  1  0.10409  -6.5e-05  0.914568  0.0  0.118902  -0.000126  0.97338  0.0  0.1215  -7.7e-05  0.970921  0.0  0.118763  0.116916  -0.000186  0.975407  0.0
H  H27  1  0.08830866  0.97383139  0.72016518  1  0.104034  -6.5e-05  0.914516  0.0  0.118808  -0.000126  0.973371  0.0  0.12141  -7.7e-05  0.970914  0.0  0.118746  0.116827  -0.000186  0.975395  0.0
H  H28  1  0.08827738  0.27981648  0.25363674  1  0.104066  -6.5e-05  0.914535  0.0  0.118962  -0.000126  0.973259  0.0  0.121562  -7.7e-05  0.970797  0.0  0.118832  0.116976  -0.000186  0.975287  0.0
H  H29  1  0.06813355  0.17405546  0.86069594  1  0.091606  -0.000996  0.919643  -0.001  0.10696  -0.000802  0.978951  0.0  0.108802  -0.000663  0.97688  0.0  0.111157  0.105611  -0.000886  0.980643  0.0
H  H30  1  0.06811036  0.13931032  0.31335990  1  0.091652  -0.000996  0.919553  -0.001  0.107027  -0.000802  0.978871  0.0  0.108886  -0.000662  0.976794  0.0  0.111167  0.105663  -0.000886  0.980572  0.0
H  H31  1  0.06815624  0.68664872  0.82596048  1  0.091728  -0.000997  0.919566  -0.001  0.107035  -0.000802  0.978944  0.0  0.108898  -0.000663  0.976854  0.0  0.11117  0.10567  -0.000886  0.980646  0.0
H  H32  1  0.93186707  0.82594531  0.13930613  1  0.091587  -0.000996  0.919657  -0.001  0.106955  -0.000803  0.978968  0.0  0.108793  -0.000663  0.976907  0.0  0.11114  0.105595  -0.000886  0.98067  0.0
H  H33  1  0.93188623  0.86068959  0.68663950  1  0.091654  -0.000996  0.919527  -0.001  0.107006  -0.000802  0.978852  0.0  0.108857  -0.000662  0.976783  0.0  0.111151  0.105643  -0.000886  0.980555  0.0
H  H34  1  0.93184304  0.31335292  0.17403978  1  0.091774  -0.000996  0.919508  -0.001  0.107056  -0.000802  0.97892  0.0  0.10892  -0.000662  0.976827  0.0  0.111174  0.105693  -0.000886  0.980623  0.0
C  C35  1  0.31525136  0.44207966  0.88062104  1  0.705691  -0.004269  3.812521  -0.005  0.667266  -0.001491  4.112881  -0.002  0.705793  -0.001371  4.105452  -0.002  0.232177  0.639701  -0.001601  4.117675  -0.003
C  C36  1  0.31524701  0.11938793  0.56145436  1  0.705846  -0.004268  3.812021  -0.005  0.667275  -0.001491  4.112546  -0.002  0.705797  -0.00137  4.105131  -0.002  0.232236  0.639728  -0.0016  4.117337  -0.003
C  C37  1  0.31520528  0.43854222  0.55792843  1  0.705805  -0.004263  3.812741  -0.005  0.667358  -0.00149  4.113279  -0.002  0.705896  -0.001369  4.105848  -0.002  0.232137  0.639795  -0.001599  4.11807  -0.003
C  C38  1  0.68475194  0.55792025  0.11938060  1  0.705528  -0.004268  3.812773  -0.005  0.667145  -0.001491  4.11307  -0.002  0.705672  -0.00137  4.105642  -0.002  0.232087  0.639584  -0.001601  4.117859  -0.003
C  C39  1  0.68474692  0.88061112  0.43854535  1  0.70577  -0.004268  3.812167  -0.005  0.667258  -0.001491  4.112627  -0.002  0.705782  -0.00137  4.10521  -0.002  0.23222  0.639704  -0.0016  4.117416  -0.003
C  C40  1  0.68479400  0.56145336  0.44206956  1  0.705764  -0.004262  3.812918  -0.005  0.667303  -0.00149  4.113453  -0.002  0.705836  -0.001369  4.106032  -0.002  0.232091  0.63974  -0.001599  4.118239  -0.003
C  C41  1  0.29081454  0.34265277  0.90386795  1  -0.146627  0.001404  3.601319  0.003  -0.2019  4e-05  3.856862  0.002  -0.203111  0.000257  3.865045  0.002  -0.06097  -0.200981  -0.00016  3.851271  0.001
C  C42  1  0.29080012  0.09613354  0.43877625  1  -0.146715  0.001405  3.60138  0.003  -0.201823  4.1e-05  3.856931  0.002  -0.203042  0.000258  3.865141  0.002  -0.060916  -0.200955  -0.000159  3.851376  0.001
C  C43  1  0.29079101  0.56122346  0.65735059  1  -0.14638  0.001403  3.600756  0.003  -0.201832  4.3e-05  3.856693  0.002  -0.203076  0.000259  3.864932  0.002  -0.060901  -0.200904  -0.000157  3.851092  0.001
C  C44  1  0.70919010  0.65734886  0.09613606  1  -0.146548  0.001404  3.601325  0.003  -0.201747  4.1e-05  3.856814  0.002  -0.20296  0.000257  3.865005  0.002  -0.060923  -0.200829  -0.00016  3.851188  0.001
C  C45  1  0.70919648  0.90386810  0.56122551  1  -0.146612  0.001403  3.601368  0.003  -0.201844  4.1e-05  3.856926  0.002  -0.203067  0.000258  3.865141  0.002  -0.060934  -0.200957  -0.000159  3.85135  0.001
C  C46  1  0.70920827  0.43877386  0.34264676  1  -0.146348  0.001405  3.600969  0.003  -0.201808  4.3e-05  3.856786  0.002  -0.203055  0.000259  3.865042  0.002  -0.060898  -0.200878  -0.000157  3.851174  0.001
C  C47  1  0.99780623  0.25756261  0.90916041  1  -0.120854  6.3e-05  3.634142  0.002  -0.178956  -0.001181  3.898589  0.001  -0.17737  -0.000765  3.90608  0.001  -0.064843  -0.180153  -0.001507  3.893632  0.001
C  C48  1  0.99778460  0.09083843  0.34839902  1  -0.120955  6.4e-05  3.633799  0.002  -0.179071  -0.00118  3.898499  0.001  -0.177523  -0.000764  3.906019  0.001  -0.064908  -0.180276  -0.001506  3.893519  0.001
C  C49  1  0.99780660  0.65161758  0.74246028  1  -0.121098  6.3e-05  3.634028  0.002  -0.179115  -0.001181  3.898686  0.001  -0.177552  -0.000764  3.906188  0.001  -0.06491  -0.180321  -0.001505  3.89371  0.001
C  C50  1  0.00219438  0.74243903  0.09083911  1  -0.1209  6.2e-05  3.634209  0.002  -0.179035  -0.00118  3.898735  0.001  -0.177471  -0.000765  3.906262  0.001  -0.064826  -0.180242  -0.001507  3.893764  0.001
C  C51  1  0.00221468  0.90916147  0.65160187  1  -0.120882  6.1e-05  3.63383  0.002  -0.178962  -0.001181  3.898367  0.001  -0.177412  -0.000764  3.905896  0.001  -0.064844  -0.180168  -0.001506  3.893394  0.001
C  C52  1  0.00219268  0.34838147  0.25753944  1  -0.121132  6.2e-05  3.634022  0.002  -0.179176  -0.00118  3.898681  0.001  -0.177613  -0.000764  3.906181  0.001  -0.064938  -0.180384  -0.001505  3.893705  0.001
C  C53  1  0.87397768  0.27166140  0.82588246  1  0.671317  -0.002176  3.86685  -0.002  0.627852  -0.002405  4.172254  -0.003  0.660671  -0.001937  4.168953  -0.002  0.208753  0.605162  -0.002818  4.173991  -0.003
C  C54  1  0.87396364  0.17412035  0.44578625  1  0.671643  -0.002175  3.86644  -0.002  0.628133  -0.002404  4.171913  -0.003  0.660963  -0.001937  4.168622  -0.002  0.20893  0.605443  -0.002818  4.173644  -0.003
C  C55  1  0.87397227  0.55424787  0.72838179  1  0.672011  -0.002175  3.86613  -0.002  0.628298  -0.002402  4.171871  -0.003  0.661121  -0.001935  4.168576  -0.002  0.208817  0.605607  -0.002815  4.173603  -0.003
C  C56  1  0.12602963  0.72834284  0.17411611  1  0.671569  -0.002174  3.866688  -0.002  0.62803  -0.002405  4.172194  -0.003  0.660857  -0.001937  4.168889  -0.002  0.208775  0.605337  -0.002818  4.173932  -0.003
C  C57  1  0.12603296  0.82587870  0.55421347  1  0.671448  -0.002175  3.866627  -0.002  0.627919  -0.002404  4.172108  -0.003  0.660749  -0.001937  4.168817  -0.002  0.208797  0.605229  -0.002818  4.173838  -0.003
C  C58  1  0.12602567  0.44575204  0.27161986  1  0.671972  -0.002174  3.866039  -0.002  0.628212  -0.002403  4.17186  -0.003  0.661035  -0.001936  4.168563  -0.002  0.208807  0.605523  -0.002815  4.173589  -0.003
N  N59  1  0.12390329  0.35441015  0.96869581  1  -0.316426  -0.046604  3.278873  -0.044  -0.279153  -0.033729  3.556664  -0.031  -0.312687  -0.02974  3.574239  -0.028  -0.481698  -0.255614  -0.035397  3.544431  -0.032
N  N60  1  0.12388919  0.03130796  0.38570920  1  -0.316162  -0.046584  3.278696  -0.044  -0.279214  -0.033716  3.556866  -0.031  -0.31275  -0.029729  3.574459  -0.028  -0.481762  -0.255592  -0.035386  3.544571  -0.032
N  N61  1  0.12388352  0.61429154  0.64560072  1  -0.316415  -0.046555  3.278738  -0.044  -0.279531  -0.033694  3.557121  -0.031  -0.313065  -0.029715  3.574711  -0.028  -0.481821  -0.255917  -0.035354  3.5448  -0.032
N  N62  1  0.87609866  0.64559062  0.03130552  1  -0.316406  -0.046604  3.278842  -0.044  -0.27918  -0.03373  3.556688  -0.031  -0.312709  -0.029741  3.574272  -0.028  -0.481692  -0.255575  -0.035398  3.544371  -0.032
N  N63  1  0.87611009  0.96869281  0.61429138  1  -0.316339  -0.046581  3.278851  -0.044  -0.279207  -0.033714  3.55684  -0.031  -0.31274  -0.029728  3.574426  -0.028  -0.481768  -0.255588  -0.035384  3.544533  -0.032
N  N64  1  0.87611710  0.38570578  0.35439813  1  -0.316446  -0.046556  3.27881  -0.044  -0.279449  -0.033694  3.557065  -0.031  -0.312984  -0.029716  3.574654  -0.028  -0.481814  -0.255836  -0.035354  3.544737  -0.032
O  O65  1  0.44916964  0.44062735  0.82205385  1  -0.691417  0.001828  2.020677  0.002  -0.650913  0.00159  2.283274  0.002  -0.687224  0.001121  2.272282  0.001  -0.393209  -0.624045  0.002011  2.289654  0.002
O  O66  1  0.44917119  0.17796139  0.61855303  1  -0.691512  0.001828  2.020678  0.002  -0.650949  0.001589  2.283331  0.002  -0.687242  0.001121  2.272304  0.001  -0.393265  -0.624073  0.002011  2.289708  0.002
O  O67  1  0.44911134  0.38143554  0.55939689  1  -0.691433  0.001823  2.020617  0.002  -0.650889  0.001586  2.283182  0.002  -0.687176  0.001119  2.272139  0.001  -0.393122  -0.624034  0.002006  2.289594  0.002
O  O68  1  0.55083499  0.55936823  0.17794564  1  -0.691389  0.001826  2.020666  0.002  -0.650904  0.00159  2.283235  0.002  -0.687212  0.001121  2.272241  0.001  -0.393162  -0.624036  0.002011  2.289615  0.002
O  O69  1  0.55082675  0.82203679  0.38144700  1  -0.691457  0.001826  2.02086  0.002  -0.650919  0.001589  2.283493  0.002  -0.687215  0.001121  2.272471  0.001  -0.393237  -0.624042  0.002011  2.289872  0.002
O  O70  1  0.55088927  0.61856091  0.44060003  1  -0.691467  0.001821  2.020684  0.002  -0.65094  0.001587  2.283276  0.002  -0.687223  0.00112  2.272237  0.001  -0.393136  -0.624081  0.002006  2.289685  0.002
O  O71  1  0.20036978  0.52416294  0.92210910  1  -0.554001  0.039939  2.053239  0.044  -0.530717  0.028643  2.323959  0.031  -0.573987  0.025112  2.313369  0.027  -0.30324  -0.499893  0.030757  2.330913  0.033
O  O72  1  0.20038599  0.07789633  0.60205770  1  -0.553963  0.039945  2.052725  0.044  -0.530619  0.028644  2.323469  0.031  -0.573899  0.025114  2.312878  0.027  -0.303238  -0.499793  0.030758  2.33043  0.033
O  O73  1  0.20032939  0.39795147  0.47584783  1  -0.553979  0.039863  2.053846  0.044  -0.530681  0.028597  2.324598  0.031  -0.573975  0.025078  2.314035  0.027  -0.303204  -0.499853  0.030702  2.331558  0.033
O  O74  1  0.79963351  0.47583697  0.07788955  1  -0.553896  0.03994  2.05343  0.044  -0.530638  0.028643  2.324142  0.031  -0.573911  0.025113  2.313554  0.027  -0.303187  -0.499814  0.030757  2.331097  0.033
O  O75  1  0.79961195  0.92210358  0.39794245  1  -0.553944  0.039946  2.052658  0.044  -0.530604  0.028644  2.323366  0.031  -0.573884  0.025113  2.312775  0.027  -0.303231  -0.499782  0.030759  2.330336  0.033
O  O76  1  0.79967123  0.60204411  0.52415015  1  -0.553894  0.039862  2.053861  0.044  -0.530585  0.028596  2.324595  0.031  -0.573881  0.025077  2.314045  0.027  -0.303148  -0.499757  0.030702  2.331554  0.033
O  O77  1  0.88813063  0.36428124  0.82009836  1  -0.670716  -0.000608  2.04774  0.0  -0.63019  0.000359  2.308631  0.001  -0.667608  0.000225  2.299112  0.001  -0.365886  -0.603906  0.000535  2.315288  0.001
O  O78  1  0.88811960  0.17990973  0.54418979  1  -0.670808  -0.000622  2.047774  0.0  -0.630192  0.000348  2.30865  0.001  -0.667602  0.000214  2.299101  0.001  -0.36589  -0.603912  0.000523  2.315313  0.001
O  O79  1  0.88813702  0.45582965  0.63578409  1  -0.670997  -0.000584  2.047565  0.0  -0.630323  0.000371  2.308515  0.001  -0.667716  0.000234  2.298969  0.001  -0.365788  -0.604051  0.000547  2.315179  0.001
O  O80  1  0.11188070  0.63572300  0.17990320  1  -0.670818  -0.000611  2.047678  0.0  -0.63025  0.000358  2.308598  0.001  -0.66767  0.000225  2.299082  0.001  -0.365899  -0.603968  0.000534  2.315259  0.001
O  O81  1  0.11187700  0.82009104  0.45581004  1  -0.670693  -0.000624  2.047783  0.0  -0.630084  0.000349  2.308661  0.001  -0.667497  0.000215  2.299124  0.001  -0.365797  -0.603801  0.000523  2.31532  0.001
O  O82  1  0.11185557  0.54417199  0.36421617  1  -0.671026  -0.000586  2.04751  0.0  -0.630333  0.000371  2.308475  0.001  -0.667729  0.000234  2.298935  0.001  -0.365788  -0.60406  0.000547  2.315138  0.001
O  O83  1  0.76022539  0.19385108  0.76795543  1  -0.634075  -0.002195  1.935748  -0.002  -0.590465  -0.001749  2.161182  -0.001  -0.616235  -0.001163  2.152126  -0.001  -0.324515  -0.572393  -0.002382  2.167219  -0.002
O  O84  1  0.76021396  0.23204281  0.42589035  1  -0.634328  -0.002198  1.935444  -0.002  -0.590701  -0.001751  2.160901  -0.001  -0.616477  -0.001164  2.151837  -0.001  -0.324631  -0.572621  -0.002384  2.166931  -0.002
O  O85  1  0.76021359  0.57416006  0.80620099  1  -0.634464  -0.002191  1.935452  -0.002  -0.590742  -0.001748  2.161007  -0.001  -0.616512  -0.001162  2.151952  -0.001  -0.32469  -0.572673  -0.00238  2.167036  -0.002
O  O86  1  0.23978058  0.80615402  0.23203982  1  -0.634246  -0.002196  1.93571  -0.002  -0.590609  -0.001749  2.161173  -0.001  -0.616376  -0.001164  2.152113  -0.001  -0.324561  -0.572537  -0.002382  2.167207  -0.002
O  O87  1  0.23978398  0.76795710  0.57410755  1  -0.63428  -0.002199  1.935463  -0.002  -0.590652  -0.001752  2.160917  -0.001  -0.616425  -0.001164  2.151854  -0.001  -0.324623  -0.572571  -0.002384  2.16695  -0.002
O  O88  1  0.23979104  0.42584158  0.19380302  1  -0.634386  -0.002192  1.935402  -0.002  -0.590656  -0.001748  2.160978  -0.001  -0.616424  -0.001162  2.151925  -0.001  -0.324686  -0.572586  -0.00238  2.167004  -0.002
