# generated using pymatgen
data_ZnH15C23N2O5
_symmetry_space_group_name_H-M   'P 1'
_cell_length_a   14.31670879
_cell_length_b   14.31669923
_cell_length_c   16.26342709
_cell_angle_alpha   101.86763978
_cell_angle_beta   101.86763902
_cell_angle_gamma   117.13505511
_symmetry_Int_Tables_number   1
_chemical_formula_structural   ZnH15C23N2O5
_chemical_formula_sum   'Zn4 H60 C92 N8 O20'
_cell_volume   2726.16693452
_cell_formula_units_Z   4
loop_
 _symmetry_equiv_pos_site_id
 _symmetry_equiv_pos_as_xyz
  1  'x, y, z'
loop_
 _atom_site_type_symbol
 _atom_site_label
 _atom_site_symmetry_multiplicity
 _atom_site_fract_x
 _atom_site_fract_y
 _atom_site_fract_z
 _atom_site_occupancy
 _atom_site_pbe_bader_charge
 _atom_site_pbe_bader_spin_density
 _atom_site_pbe_cm5_charge
 _atom_site_pbe_ddec_charge
 _atom_site_pbe_ddec_spin_density
 _atom_site_pbe_ddec_sum_bond_order
 _atom_site_pbe_magmom
Zn  Zn0  1  0.40454638  0.43523787  0.63833240  1  1.294451  0  0.683853  0.839521  0  2.335051  0
Zn  Zn1  1  0.56476136  0.59545417  0.86166788  1  1.294203  0  0.683867  0.839553  0  2.335054  0
Zn  Zn2  1  0.59545368  0.56476107  0.36166733  1  1.29417  0  0.683859  0.839525  0  2.33511  0
Zn  Zn3  1  0.43523787  0.40454505  0.13833236  1  1.294435  0  0.683873  0.839564  0  2.335063  0
H  H4  1  0.69011086  0.38134598  0.62049178  1  0.096442  0  0.106231  0.107103  0  1.001658  0
H  H5  1  0.79193403  0.27839615  0.61279874  1  0.078569  0  0.10867  0.124335  0  0.985484  0
H  H6  1  0.53022976  0.01003716  0.65892085  1  0.075842  0  0.105128  0.121902  0  1.013539  0
H  H7  1  0.42922016  0.11275705  0.66463012  1  0.08424  0  0.104521  0.104519  0  0.999254  0
H  H8  1  0.77856671  0.07388629  0.79063227  1  0.090786  0  0.105325  0.117352  0  1.037716  0
H  H9  1  0.69778979  0.89498849  0.82553121  1  0.078357  0  0.105609  0.110459  0  1.000489  0
H  H10  1  0.50832503  0.70822769  0.54621594  1  0.069857  0  0.103588  0.10561  0  1.02058  0
H  H11  1  0.58868840  0.88609194  0.51188846  1  0.110832  0  0.10355  0.119811  0  1.039675  0
H  H12  1  0.38418691  0.50857866  0.48172247  1  0.131441  0  0.117592  0.092319  0  1.016656  0
H  H13  1  0.28657396  0.42146713  0.31657421  1  0.15759  0  0.112435  0.133165  0  1.022278  0
H  H14  1  0.10609776  0.10500128  0.35374483  1  0.129918  0  0.108593  0.118873  0  1.042192  0
H  H15  1  0.21335550  0.20515312  0.51908988  1  0.128471  0  0.115125  0.091042  0  1.016119  0
H  H16  1  0.15925941  0.26034430  0.18680764  1  0.127525  0  0.111609  0.089219  0  1.046829  0
H  H17  1  0.07755204  0.92087466  0.09733144  1  0.082834  0  0.106984  0.117566  0  1.003779  0
H  H18  1  0.99006299  0.16601715  0.06843788  1  0.081497  0  0.107703  0.115902  0  0.991466  0
H  H19  1  0.61865428  0.30989063  0.87950826  1  0.096372  0  0.106234  0.107096  0  1.001617  0
H  H20  1  0.72160434  0.20806811  0.88720146  1  0.078555  0  0.108663  0.124329  0  0.985486  0
H  H21  1  0.98996238  0.46977203  0.84107851  1  0.07586  0  0.105129  0.121885  0  1.013578  0
H  H22  1  0.88724346  0.57078138  0.83536935  1  0.084181  0  0.104561  0.104564  0  0.999269  0
H  H23  1  0.92611358  0.22143289  0.70936861  1  0.090708  0  0.105329  0.117346  0  1.037749  0
H  H24  1  0.10501100  0.30221004  0.67446836  1  0.07835  0  0.105611  0.11044  0  1.000533  0
H  H25  1  0.29177220  0.49167583  0.95378327  1  0.069859  0  0.103591  0.105588  0  1.020601  0
H  H26  1  0.11390866  0.41131378  0.98811172  1  0.11117  0  0.103527  0.119775  0  1.039728  0
H  H27  1  0.49142109  0.61581264  0.01827750  1  0.131438  0  0.11759  0.092322  0  1.016631  0
H  H28  1  0.57853269  0.71342563  0.18342578  1  0.15759  0  0.112435  0.133164  0  1.022273  0
H  H29  1  0.89499813  0.89390160  0.14625566  1  0.129938  0  0.108577  0.118855  0  1.042227  0
H  H30  1  0.79484684  0.78664454  0.98090982  1  0.12851  0  0.115112  0.091032  0  1.016084  0
H  H31  1  0.73965597  0.84074137  0.31319265  1  0.127534  0  0.111616  0.089245  0  1.046795  0
H  H32  1  0.07912340  0.92244699  0.40266871  1  0.082852  0  0.106997  0.117576  0  1.003798  0
H  H33  1  0.83398254  0.00993684  0.43156280  1  0.081502  0  0.107702  0.115879  0  0.991475  0
H  H34  1  0.30989171  0.61865426  0.37950741  1  0.096462  0  0.106237  0.107114  0  1.001607  0
H  H35  1  0.20806687  0.72160251  0.38720047  1  0.078633  0  0.108691  0.124347  0  0.985531  0
H  H36  1  0.46977198  0.98996408  0.34107960  1  0.075824  0  0.105136  0.121881  0  1.013576  0
H  H37  1  0.57078158  0.88724562  0.33536996  1  0.084199  0  0.104535  0.104549  0  0.999256  0
H  H38  1  0.22143252  0.92611293  0.20936797  1  0.090722  0  0.105322  0.117374  0  1.037662  0
H  H39  1  0.30221028  0.10501117  0.17446864  1  0.078359  0  0.105603  0.11044  0  1.000526  0
H  H40  1  0.49167588  0.29177168  0.45378401  1  0.069869  0  0.103588  0.105608  0  1.020538  0
H  H41  1  0.41131334  0.11390787  0.48811172  1  0.111118  0  0.103556  0.119803  0  1.039712  0
H  H42  1  0.61581399  0.49142143  0.51827699  1  0.131452  0  0.117598  0.092328  0  1.016626  0
H  H43  1  0.71342610  0.57853323  0.68342516  1  0.157609  0  0.112434  0.133131  0  1.022322  0
H  H44  1  0.89390147  0.89499866  0.64625553  1  0.129926  0  0.108596  0.118888  0  1.042147  0
H  H45  1  0.78664457  0.79484796  0.48090962  1  0.12848  0  0.115103  0.091026  0  1.016067  0
H  H46  1  0.84074065  0.73965607  0.81319173  1  0.12757  0  0.111621  0.089229  0  1.046808  0
H  H47  1  0.92244719  0.07912456  0.90266818  1  0.082829  0  0.107015  0.117626  0  1.003763  0
H  H48  1  0.00993624  0.83398279  0.93156188  1  0.081499  0  0.107716  0.115908  0  0.991492  0
H  H49  1  0.38134495  0.69010859  0.12049198  1  0.096471  0  0.106232  0.107087  0  1.001617  0
H  H50  1  0.27839657  0.79193269  0.11279875  1  0.078558  0  0.108654  0.124312  0  0.985484  0
H  H51  1  0.01003686  0.53022862  0.15892137  1  0.075853  0  0.105116  0.121865  0  1.013585  0
H  H52  1  0.11275494  0.42921884  0.16462968  1  0.084215  0  0.10455  0.104552  0  0.99925  0
H  H53  1  0.07388565  0.77856633  0.29063163  1  0.090798  0  0.105328  0.117379  0  1.037693  0
H  H54  1  0.89498823  0.69778918  0.32553126  1  0.078383  0  0.105619  0.110482  0  1.000501  0
H  H55  1  0.70822704  0.50832411  0.04621648  1  0.06985  0  0.1036  0.105603  0  1.02054  0
H  H56  1  0.88609141  0.58868588  0.01188813  1  0.111611  0  0.103522  0.11977  0  1.03974  0
H  H57  1  0.50857815  0.38418730  0.98172287  1  0.131451  0  0.117593  0.092313  0  1.016675  0
H  H58  1  0.42146654  0.28657287  0.81657432  1  0.157599  0  0.112435  0.133151  0  1.022276  0
H  H59  1  0.10500110  0.10609834  0.85374409  1  0.129924  0  0.108587  0.118868  0  1.042202  0
H  H60  1  0.20515156  0.21335496  0.01908970  1  0.128477  0  0.115105  0.091036  0  1.01607  0
H  H61  1  0.26034493  0.15925872  0.68680805  1  0.127504  0  0.111636  0.089284  0  1.046734  0
H  H62  1  0.92087499  0.07755251  0.59733204  1  0.083248  0  0.106998  0.117589  0  1.003808  0
H  H63  1  0.16601670  0.99006310  0.56843757  1  0.081498  0  0.107704  0.115902  0  0.991494  0
C  C64  1  0.55277775  0.25313755  0.64277683  1  -0.003215  0  -0.030862  -0.067987  0  4.01443  0
C  C65  1  0.65534249  0.29966786  0.62826378  1  -0.05726  0  -0.078691  -0.061715  0  3.984023  0
C  C66  1  0.71213934  0.24288606  0.62382833  1  0.023823  0  -0.103095  -0.205469  0  3.995278  0
C  C67  1  0.66689693  0.13854099  0.63495655  1  0.412421  0  0.092983  0.275877  0  4.033085  0
C  C68  1  0.56494516  0.09093104  0.64998959  1  0.022521  0  -0.110593  -0.22454  0  4.014486  0
C  C69  1  0.50893829  0.14856351  0.65351241  1  -0.096932  0  -0.083416  -0.06535  0  4.00851  0
C  C70  1  0.48792917  0.30985096  0.64403255  1  1.516788  0  0.194798  0.557242  0  4.226131  0
C  C71  1  0.68675995  0.98759011  0.64982301  1  0.296019  0  0.082364  0.257183  0  4.035918  0
C  C72  1  0.71972123  0.99285031  0.73829488  1  0.048952  0  -0.098486  -0.198721  0  3.987298  0
C  C73  1  0.67447530  0.89406589  0.75713437  1  -0.037801  0  -0.078267  -0.061057  0  3.973699  0
C  C74  1  0.59736319  0.79138755  0.68827259  1  0.020063  0  -0.026233  -0.064811  0  3.982214  0
C  C75  1  0.56749548  0.78820849  0.59957669  1  -0.009931  0  -0.07958  -0.063199  0  3.962341  0
C  C76  1  0.61249093  0.88651723  0.58002108  1  -0.018363  0  -0.097305  -0.192998  0  3.979795  0
C  C77  1  0.54913573  0.68595849  0.70967091  1  1.585372  0  0.222613  0.605674  0  4.169976  0
C  C78  1  0.32078681  0.41988886  0.45103273  1  0.369954  0  0.051481  0.104317  0  3.914152  0
C  C79  1  0.26516118  0.37095387  0.35915623  1  0.003149  0  -0.078186  -0.164674  0  3.906429  0
C  C80  1  0.18733647  0.25561261  0.32235061  1  0.033519  0  0.012031  0.110756  0  3.992682  0
C  C81  1  0.16598028  0.19469146  0.38068464  1  -0.064497  0  -0.072868  -0.152856  0  3.90643  0
C  C82  1  0.22459405  0.24971235  0.47167081  1  0.503039  0  0.048268  0.09726  0  3.923079  0
C  C83  1  0.13797243  0.20284131  0.22492769  1  0.596322  0  0.07886  0.074323  0  3.897789  0
C  C84  1  0.04045010  0.05026218  0.09382699  1  0.404278  0  0.090333  0.196466  0  4.085935  0
C  C85  1  0.04341542  0.95494968  0.05411722  1  0.015068  0  -0.085557  -0.145525  0  3.96512  0
C  C86  1  0.99518135  0.09387240  0.03827736  1  -0.122804  0  -0.089806  -0.160228  0  3.977475  0
C  C87  1  0.74686287  0.44722322  0.85722376  1  -0.003129  0  -0.030923  -0.068044  0  4.014468  0
C  C88  1  0.70033281  0.34465988  0.87173649  1  -0.057192  0  -0.078685  -0.061705  0  3.984027  0
C  C89  1  0.75711399  0.28786268  0.87617239  1  0.023857  0  -0.10308  -0.205475  0  3.995403  0
C  C90  1  0.86145930  0.33310461  0.86504352  1  0.412504  0  0.09305  0.275955  0  4.033045  0
C  C91  1  0.90906861  0.43505595  0.85001090  1  0.022452  0  -0.11057  -0.224457  0  4.014443  0
C  C92  1  0.85143654  0.49106363  0.84648705  1  -0.096856  0  -0.083454  -0.065439  0  4.008615  0
C  C93  1  0.69014957  0.51207412  0.85596785  1  1.516713  0  0.194855  0.55732  0  4.226079  0
C  C94  1  0.01241009  0.31324243  0.85017714  1  0.29598  0  0.082337  0.257144  0  4.036017  0
C  C95  1  0.00714865  0.28027895  0.76170465  1  0.048919  0  -0.0985  -0.198731  0  3.987362  0
C  C96  1  0.10593347  0.32552496  0.74286525  1  -0.037773  0  -0.078248  -0.061007  0  3.973661  0
C  C97  1  0.20861178  0.40263749  0.81172649  1  0.020025  0  -0.026211  -0.064842  0  3.98208  0
C  C98  1  0.21179181  0.43250621  0.90042274  1  -0.00971  0  -0.079582  -0.063137  0  3.962274  0
C  C99  1  0.11348193  0.38751063  0.91997813  1  -0.018893  0  -0.09727  -0.192975  0  3.979837  0
C  C100  1  0.31404046  0.45086457  0.79032865  1  1.585716  0  0.222583  0.605707  0  4.169895  0
C  C101  1  0.58011118  0.67921282  0.04896792  1  0.369958  0  0.051488  0.104345  0  3.914094  0
C  C102  1  0.62904633  0.73483876  0.14084389  1  0.003133  0  -0.078177  -0.164656  0  3.906412  0
C  C103  1  0.74438715  0.81266352  0.17764945  1  0.033543  0  0.012027  0.110752  0  3.992688  0
C  C104  1  0.80530715  0.83401878  0.11931443  1  -0.06452  0  -0.072885  -0.152877  0  3.906551  0
C  C105  1  0.75028645  0.77540468  0.02832946  1  0.503044  0  0.048336  0.097326  0  3.923181  0
C  C106  1  0.79715818  0.86202757  0.27507232  1  0.596308  0  0.078899  0.074366  0  3.897642  0
C  C107  1  0.94973808  0.95955055  0.40617389  1  0.404302  0  0.090297  0.196453  0  4.085963  0
C  C108  1  0.04505013  0.95658409  0.44588333  1  0.015028  0  -0.085579  -0.145533  0  3.965109  0
C  C109  1  0.90612768  0.00481909  0.46172350  1  -0.122796  0  -0.089768  -0.160154  0  3.977442  0
C  C110  1  0.44722399  0.74686441  0.35722374  1  -0.003095  0  -0.030909  -0.068071  0  4.014491  0
C  C111  1  0.34466008  0.70033310  0.37173615  1  -0.057262  0  -0.078697  -0.061726  0  3.984001  0
C  C112  1  0.28786240  0.75711447  0.37617199  1  0.023777  0  -0.103088  -0.205447  0  3.995486  0
C  C113  1  0.33310398  0.86145910  0.36504354  1  0.41254  0  0.09296  0.275846  0  4.0332  0
C  C114  1  0.43505574  0.90906976  0.35001063  1  0.022541  0  -0.110598  -0.224483  0  4.014476  0
C  C115  1  0.49106429  0.85143888  0.34648839  1  -0.096979  0  -0.083424  -0.065388  0  4.008613  0
C  C116  1  0.51207424  0.69015115  0.35596773  1  1.516684  0  0.194879  0.55738  0  4.226092  0
C  C117  1  0.31324012  0.01240883  0.35017671  1  0.295978  0  0.082427  0.257337  0  4.035803  0
C  C118  1  0.28027968  0.00715049  0.26170595  1  0.048966  0  -0.09851  -0.198806  0  3.987304  0
C  C119  1  0.32552560  0.10593420  0.24286571  1  -0.037809  0  -0.078264  -0.061051  0  3.973747  0
C  C120  1  0.40263772  0.20861182  0.31172736  1  0.020071  0  -0.026241  -0.064819  0  3.9821  0
C  C121  1  0.43250542  0.21179089  0.40042326  1  -0.009761  0  -0.079573  -0.063222  0  3.962159  0
C  C122  1  0.38750997  0.11348143  0.41997875  1  -0.018831  0  -0.097302  -0.192995  0  3.97973  0
C  C123  1  0.45086433  0.31404117  0.29032956  1  1.585496  0  0.22261  0.605729  0  4.169836  0
C  C124  1  0.67921409  0.58011123  0.54896735  1  0.369948  0  0.051484  0.104342  0  3.914042  0
C  C125  1  0.73483972  0.62904693  0.64084336  1  0.003156  0  -0.07819  -0.164641  0  3.906466  0
C  C126  1  0.81266360  0.74438776  0.67764876  1  0.033541  0  0.012016  0.110701  0  3.99274  0
C  C127  1  0.83401895  0.80530776  0.61931437  1  -0.064538  0  -0.072904  -0.152888  0  3.90652  0
C  C128  1  0.77540518  0.75028687  0.52832943  1  0.503402  0  0.048329  0.097325  0  3.923147  0
C  C129  1  0.86202764  0.79715906  0.77507229  1  0.596309  0  0.078882  0.07439  0  3.897722  0
C  C130  1  0.95955081  0.94973934  0.90617335  1  0.404319  0  0.090317  0.196454  0  4.085859  0
C  C131  1  0.95658549  0.04505184  0.94588312  1  0.01506  0  -0.085579  -0.145628  0  3.965119  0
C  C132  1  0.00481956  0.90612769  0.96172334  1  -0.122846  0  -0.089836  -0.160259  0  3.977438  0
C  C133  1  0.25313636  0.55277600  0.14277648  1  -0.003216  0  -0.030917  -0.068102  0  4.01457  0
C  C134  1  0.29966642  0.65534006  0.12826388  1  -0.057269  0  -0.078709  -0.06171  0  3.984006  0
C  C135  1  0.24288524  0.71213726  0.12382859  1  0.023855  0  -0.103053  -0.20543  0  3.995481  0
C  C136  1  0.13854160  0.66689619  0.13495731  1  0.412415  0  0.093038  0.275975  0  4.033063  0
C  C137  1  0.09093062  0.56494398  0.14999009  1  0.022443  0  -0.110558  -0.224474  0  4.014427  0
C  C138  1  0.14856185  0.50893658  0.15351321  1  -0.096913  0  -0.083444  -0.065378  0  4.008608  0
C  C139  1  0.30984883  0.48792538  0.14403229  1  1.516624  0  0.194867  0.557326  0  4.226155  0
C  C140  1  0.98758998  0.68675794  0.14982284  1  0.295997  0  0.082365  0.257232  0  4.035931  0
C  C141  1  0.99284975  0.71971984  0.23829474  1  0.048968  0  -0.098492  -0.198753  0  3.987274  0
C  C142  1  0.89406493  0.67447383  0.25713414  1  -0.037835  0  -0.078299  -0.061111  0  3.973749  0
C  C143  1  0.79138745  0.59736244  0.18827265  1  0.020051  0  -0.026211  -0.064827  0  3.982159  0
C  C144  1  0.78820825  0.56749416  0.09957663  1  -0.009732  0  -0.079589  -0.063147  0  3.962241  0
C  C145  1  0.88651730  0.61248931  0.08002163  1  -0.019345  0  -0.097276  -0.193019  0  3.979851  0
C  C146  1  0.68595794  0.54913493  0.20967026  1  1.58548  0  0.222615  0.60574  0  4.169907  0
C  C147  1  0.41988888  0.32078612  0.95103242  1  0.369955  0  0.051463  0.104304  0  3.914151  0
C  C148  1  0.37095374  0.26515947  0.85915632  1  0.003129  0  -0.078165  -0.164616  0  3.906418  0
C  C149  1  0.25561375  0.18733514  0.82235099  1  0.033535  0  0.012005  0.110728  0  3.992733  0
C  C150  1  0.19469208  0.16598044  0.88068519  1  -0.064521  0  -0.072847  -0.152804  0  3.906451  0
C  C151  1  0.24971278  0.22459454  0.97167016  1  0.503416  0  0.048271  0.097223  0  3.9231  0
C  C152  1  0.20284272  0.13797180  0.72492764  1  0.596313  0  0.078883  0.074354  0  3.897613  0
C  C153  1  0.05026199  0.04045054  0.59382745  1  0.404441  0  0.090247  0.196477  0  4.085788  0
C  C154  1  0.95494910  0.04341656  0.55411840  1  0.014629  0  -0.08553  -0.145586  0  3.965027  0
C  C155  1  0.09387322  0.99518100  0.53827720  1  -0.122944  0  -0.089798  -0.160283  0  3.977426  0
N  N156  1  0.30179540  0.36059204  0.50665994  1  -1.252208  0  -0.328864  -0.237178  0  3.541213  0
N  N157  1  0.08171200  0.09575302  0.18720815  1  -1.184664  0  -0.300707  -0.269444  0  3.336513  0
N  N158  1  0.63940780  0.69820397  0.99333961  1  -1.252255  0  -0.328905  -0.237252  0  3.541343  0
N  N159  1  0.90424811  0.91828939  0.31279241  1  -1.184705  0  -0.300725  -0.269506  0  3.33642  0
N  N160  1  0.69820467  0.63940833  0.49333942  1  -1.252594  0  -0.328895  -0.237249  0  3.541289  0
N  N161  1  0.91828891  0.90424850  0.81279220  1  -1.184731  0  -0.300721  -0.269485  0  3.336505  0
N  N162  1  0.36059144  0.30179526  0.00666001  1  -1.252585  0  -0.328863  -0.237196  0  3.541239  0
N  N163  1  0.09575279  0.08171070  0.68720767  1  -1.184648  0  -0.30072  -0.269543  0  3.336414  0
O  O164  1  0.72805966  0.08702584  0.63074512  1  -1.100212  0  -0.157785  -0.23057  0  2.538321  0
O  O165  1  0.53432836  0.41116635  0.64282470  1  -1.15974  0  -0.327432  -0.561353  0  2.287364  0
O  O166  1  0.38903505  0.25900480  0.64428486  1  -1.191678  0  -0.322979  -0.566902  0  2.21032  0
O  O167  1  0.47595549  0.59562975  0.64524164  1  -1.18847  0  -0.314974  -0.549813  0  2.36848  0
O  O168  1  0.58629442  0.69565306  0.79117676  1  -1.18189  0  -0.314573  -0.543386  0  2.389192  0
O  O169  1  0.91297425  0.27194261  0.86925566  1  -1.10013  0  -0.157809  -0.230573  0  2.538304  0
O  O170  1  0.58883383  0.46567331  0.85717473  1  -1.160128  0  -0.327418  -0.561347  0  2.287357  0
O  O171  1  0.74099536  0.61096789  0.85571725  1  -1.191599  0  -0.323035  -0.566963  0  2.21033  0
O  O172  1  0.40436997  0.52404444  0.85475861  1  -1.188549  0  -0.314976  -0.549819  0  2.368449  0
O  O173  1  0.30434630  0.41370490  0.70882270  1  -1.182123  0  -0.314569  -0.543417  0  2.389157  0
O  O174  1  0.27194041  0.91297310  0.36925522  1  -1.100207  0  -0.157787  -0.230598  0  2.5383  0
O  O175  1  0.46567422  0.58883461  0.35717277  1  -1.160073  0  -0.327411  -0.561338  0  2.287511  0
O  O176  1  0.61096920  0.74099917  0.35571838  1  -1.191616  0  -0.323056  -0.567007  0  2.210273  0
O  O177  1  0.52404374  0.40436948  0.35475921  1  -1.188569  0  -0.315004  -0.54983  0  2.368434  0
O  O178  1  0.41370481  0.30434617  0.20882348  1  -1.181878  0  -0.31455  -0.543413  0  2.389178  0
O  O179  1  0.08702582  0.72805848  0.13074507  1  -1.100177  0  -0.157838  -0.230634  0  2.538249  0
O  O180  1  0.41116456  0.53432548  0.14282528  1  -1.159664  0  -0.327424  -0.56136  0  2.287519  0
O  O181  1  0.25900304  0.38903090  0.14428337  1  -1.19157  0  -0.323033  -0.566953  0  2.210286  0
O  O182  1  0.59562926  0.47595479  0.14524102  1  -1.188576  0  -0.31498  -0.549831  0  2.368547  0
O  O183  1  0.69565293  0.58629575  0.29117596  1  -1.181881  0  -0.314567  -0.543418  0  2.389198  0
