# generated using pymatgen
data_InAgH16C24(NO2)4
_symmetry_space_group_name_H-M   'P 1'
_cell_length_a   11.55760342
_cell_length_b   13.28644353
_cell_length_c   14.09484115
_cell_angle_alpha   79.72994278
_cell_angle_beta   65.73826037
_cell_angle_gamma   64.25888662
_symmetry_Int_Tables_number   1
_chemical_formula_structural   InAgH16C24(NO2)4
_chemical_formula_sum   'In2 Ag2 H32 C48 N8 O16'
_cell_volume   1777.41942221
_cell_formula_units_Z   2
loop_
 _symmetry_equiv_pos_site_id
 _symmetry_equiv_pos_as_xyz
  1  'x, y, z'
loop_
 _atom_site_type_symbol
 _atom_site_label
 _atom_site_symmetry_multiplicity
 _atom_site_fract_x
 _atom_site_fract_y
 _atom_site_fract_z
 _atom_site_occupancy
 _atom_site_pbe_bader_charge
 _atom_site_pbe_bader_spin_density
 _atom_site_pbe_cm5_charge
 _atom_site_pbe_ddec_charge
 _atom_site_pbe_ddec_spin_density
 _atom_site_pbe_ddec_sum_bond_order
 _atom_site_pbe_magmom
In  In0  1  0.87485718  0.25018645  0.24972994  1  1.867872  0  0.72539  1.346842  0  2.595312  0
In  In1  1  0.12514542  0.74980654  0.75027019  1  1.867755  0  0.725374  1.346757  0  2.595304  0
Ag  Ag2  1  0.62568572  0.74982943  0.74991963  1  0.58426  0  0.480346  0.258709  0  2.029947  0
Ag  Ag3  1  0.37432281  0.25016524  0.25008416  1  0.584269  0  0.480358  0.258747  0  2.030019  0
H  H4  1  0.54615270  0.09816990  0.49714907  1  0.102482  0  0.109644  0.116064  0  1.012225  0
H  H5  1  0.95684258  0.40167386  0.49660326  1  0.108754  0  0.109931  0.116315  0  1.011954  0
H  H6  1  0.35556628  0.09823980  0.00289242  1  0.104861  0  0.11077  0.117856  0  1.0117  0
H  H7  1  0.64126856  0.40192838  0.00303215  1  0.085066  0  0.110556  0.117051  0  1.011449  0
H  H8  1  0.45384260  0.90183061  0.50286009  1  0.102431  0  0.109645  0.116034  0  1.012247  0
H  H9  1  0.04317018  0.59833418  0.50337688  1  0.10882  0  0.109972  0.116348  0  1.011978  0
H  H10  1  0.64443548  0.90176406  0.99711349  1  0.104802  0  0.110761  0.117858  0  1.011756  0
H  H11  1  0.35872817  0.59806963  0.99696287  1  0.084985  0  0.110572  0.117103  0  1.011396  0
H  H12  1  0.96770185  0.93733624  0.48162302  1  0.115178  0  0.113884  0.125472  0  1.006697  0
H  H13  1  0.55015512  0.56293362  0.48227584  1  0.111536  0  0.113821  0.125113  0  1.00697  0
H  H14  1  0.09531598  0.93693186  0.01795949  1  0.110586  0  0.114495  0.1261  0  1.007138  0
H  H15  1  0.88705173  0.56292885  0.01766299  1  0.12353  0  0.113717  0.125257  0  1.007257  0
H  H16  1  0.03229827  0.06267013  0.51838048  1  0.115213  0  0.113905  0.12551  0  1.006604  0
H  H17  1  0.44984568  0.43706857  0.51772252  1  0.1116  0  0.113816  0.125136  0  1.00689  0
H  H18  1  0.90468689  0.06306782  0.98203713  1  0.110587  0  0.11451  0.126119  0  1.007146  0
H  H19  1  0.11293999  0.43707167  0.98234313  1  0.123864  0  0.113683  0.12516  0  1.007329  0
H  H20  1  0.48760820  0.96753136  0.64435413  1  0.123726  0  0.114548  0.082439  0  1.001376  0
H  H21  1  0.86864269  0.53221946  0.64373044  1  0.104366  0  0.113  0.081444  0  1.002883  0
H  H22  1  0.54505182  0.96748166  0.85589456  1  0.121514  0  0.113996  0.082207  0  1.00233  0
H  H23  1  0.59954691  0.53237793  0.85575034  1  0.092833  0  0.114088  0.083148  0  1.002162  0
H  H24  1  0.51239787  0.03246331  0.35564833  1  0.123681  0  0.114507  0.0824  0  1.001346  0
H  H25  1  0.13136822  0.46778273  0.35625806  1  0.104217  0  0.112988  0.081333  0  1.002893  0
H  H26  1  0.45495135  0.03251050  0.14411660  1  0.121254  0  0.114027  0.082224  0  1.002337  0
H  H27  1  0.40044662  0.46762091  0.14424646  1  0.09291  0  0.114128  0.083221  0  1.002156  0
H  H28  1  0.89456889  0.81173369  0.62571731  1  0.150569  0  0.117906  0.100632  0  1.028012  0
H  H29  1  0.47977156  0.68837661  0.62628260  1  0.161295  0  0.11814  0.102137  0  1.028909  0
H  H30  1  0.29436838  0.81116881  0.87411400  1  0.14289  0  0.118754  0.102662  0  1.029453  0
H  H31  1  0.83257635  0.68832810  0.87355944  1  0.1606  0  0.118423  0.102223  0  1.029159  0
H  H32  1  0.10544007  0.18826515  0.37427472  1  0.150746  0  0.117902  0.100704  0  1.028087  0
H  H33  1  0.52022916  0.31161973  0.37371960  1  0.161239  0  0.118142  0.102181  0  1.028801  0
H  H34  1  0.70563023  0.18883254  0.12589060  1  0.143139  0  0.118738  0.102719  0  1.029323  0
H  H35  1  0.16741815  0.31167242  0.12644491  1  0.160592  0  0.118463  0.102253  0  1.029126  0
C  C36  1  0.62533247  0.03534201  0.52401469  1  0.061638  0  -0.079023  -0.144171  0  3.955415  0
C  C37  1  0.85077147  0.46455800  0.52372071  1  -0.007058  0  -0.081872  -0.146852  0  3.956534  0
C  C38  1  0.33935886  0.03531637  0.97598798  1  -0.029474  0  -0.080701  -0.147306  0  3.955787  0
C  C39  1  0.68456867  0.46479585  0.97600413  1  -0.067725  0  -0.080391  -0.145494  0  3.955376  0
C  C40  1  0.37466605  0.96465683  0.47599029  1  0.061639  0  -0.079088  -0.144219  0  3.955381  0
C  C41  1  0.14923685  0.53544836  0.47626643  1  -0.006144  0  -0.082005  -0.147003  0  3.956441  0
C  C42  1  0.66064148  0.96468665  0.02401693  1  -0.028932  0  -0.080678  -0.147233  0  3.955892  0
C  C43  1  0.31543041  0.53520049  0.02399500  1  -0.067228  0  -0.080368  -0.145567  0  3.955293  0
C  C44  1  0.86074277  0.94576205  0.51447364  1  0.016157  0  -0.072382  -0.129384  0  3.914628  0
C  C45  1  0.62453321  0.55440156  0.51483223  1  -0.021579  0  -0.073422  -0.129692  0  3.914737  0
C  C46  1  0.19380158  0.94546813  0.98522696  1  0.018912  0  -0.074236  -0.131413  0  3.919582  0
C  C47  1  0.82129827  0.55440549  0.98499093  1  0.02884  0  -0.072314  -0.127214  0  3.916062  0
C  C48  1  0.13926284  0.05424014  0.48552842  1  0.016244  0  -0.072449  -0.129421  0  3.914524  0
C  C49  1  0.37547058  0.44560062  0.48516227  1  -0.021619  0  -0.073373  -0.129661  0  3.914497  0
C  C50  1  0.80619766  0.05453239  0.01477557  1  0.018962  0  -0.074208  -0.131386  0  3.919333  0
C  C51  1  0.17869578  0.44558834  0.01501246  1  0.028573  0  -0.072389  -0.127244  0  3.916219  0
C  C52  1  0.59315009  0.96322328  0.60511695  1  0.410962  0  0.03675  0.071257  0  3.980155  0
C  C53  1  0.80213890  0.53663820  0.60474682  1  0.436974  0  0.038923  0.072613  0  3.981119  0
C  C54  1  0.44385343  0.96309233  0.89502993  1  0.468  0  0.036894  0.071083  0  3.976461  0
C  C55  1  0.66149777  0.53680112  0.89488080  1  0.546473  0  0.037031  0.07063  0  3.978856  0
C  C56  1  0.40685475  0.03677139  0.39488484  1  0.410905  0  0.036865  0.071432  0  3.979944  0
C  C57  1  0.19787160  0.46336315  0.39524343  1  0.436655  0  0.039038  0.072876  0  3.980904  0
C  C58  1  0.55614828  0.03690317  0.10497916  1  0.467703  0  0.036963  0.07111  0  3.976542  0
C  C59  1  0.33849770  0.46319689  0.10512011  1  0.54648  0  0.037049  0.07061  0  3.978952  0
C  C60  1  0.82010761  0.87591184  0.59524703  1  0.491137  0  0.048793  0.091823  0  3.918658  0
C  C61  1  0.58469071  0.62415976  0.59556091  1  0.473018  0  0.049094  0.090965  0  3.920446  0
C  C62  1  0.30447459  0.87551698  0.90459292  1  0.482566  0  0.048128  0.089715  0  3.922734  0
C  C63  1  0.79168289  0.62415304  0.90422021  1  0.460565  0  0.048704  0.090387  0  3.915928  0
C  C64  1  0.17990152  0.12408951  0.40475014  1  0.490823  0  0.048734  0.091578  0  3.918859  0
C  C65  1  0.41531372  0.37583825  0.40443499  1  0.472813  0  0.049143  0.09104  0  3.920196  0
C  C66  1  0.69552338  0.12448520  0.09541376  1  0.482071  0  0.048089  0.089657  0  3.922425  0
C  C67  1  0.20831018  0.37584830  0.09578140  1  0.460466  0  0.048709  0.090431  0  3.916167  0
C  C68  1  0.79999386  0.10504568  0.39216194  1  1.553876  0  0.214029  0.549989  0  4.210465  0
C  C69  1  0.80733281  0.39522312  0.39217801  1  1.525145  0  0.215186  0.5503  0  4.208293  0
C  C70  1  0.09481529  0.10495177  0.10740074  1  1.541545  0  0.212772  0.547477  0  4.21189  0
C  C71  1  0.79724996  0.39525238  0.10743056  1  1.544981  0  0.214477  0.552421  0  4.208579  0
C  C72  1  0.19999732  0.89495901  0.60784175  1  1.554204  0  0.214025  0.549986  0  4.21061  0
C  C73  1  0.19266634  0.60478241  0.60781379  1  1.525472  0  0.215282  0.550463  0  4.20827  0
C  C74  1  0.90518518  0.89505041  0.89260073  1  1.541363  0  0.212704  0.547334  0  4.212241  0
C  C75  1  0.20274079  0.60474813  0.89256628  1  1.544118  0  0.214483  0.552362  0  4.208006  0
C  C76  1  0.76205649  0.02677962  0.47749829  1  -0.134381  0  0.004442  0.020839  0  3.953411  0
C  C77  1  0.76021962  0.47332634  0.47754963  1  -0.012395  0  0.005694  0.021954  0  3.954795  0
C  C78  1  0.21123567  0.02666681  0.02223759  1  -0.097058  0  0.004754  0.022197  0  3.957363  0
C  C79  1  0.76643872  0.47341883  0.02218882  1  -0.090256  0  0.004058  0.018224  0  3.957788  0
C  C80  1  0.23794605  0.97321755  0.52250732  1  -0.134702  0  0.004437  0.020849  0  3.953392  0
C  C81  1  0.23978260  0.52668086  0.52244209  1  -0.0129  0  0.005704  0.021869  0  3.954829  0
C  C82  1  0.78876513  0.97333204  0.97776424  1  -0.096891  0  0.004749  0.022177  0  3.957422  0
C  C83  1  0.23355377  0.52657667  0.97781527  1  -0.090866  0  0.004062  0.018358  0  3.957382  0
N  N84  1  0.68856034  0.88415126  0.64002771  1  -1.20039  0  -0.332668  -0.207125  0  3.557531  0
N  N85  1  0.67183609  0.61575411  0.63991441  1  -1.206935  0  -0.332261  -0.207062  0  3.558444  0
N  N86  1  0.42776335  0.88384685  0.86002446  1  -1.198568  0  -0.33162  -0.205942  0  3.554146  0
N  N87  1  0.71299116  0.61582319  0.85972615  1  -1.199509  0  -0.332661  -0.207151  0  3.552302  0
N  N88  1  0.31145421  0.11584090  0.35996771  1  -1.200442  0  -0.332592  -0.207041  0  3.557552  0
N  N89  1  0.32817153  0.38424390  0.36008213  1  -1.206837  0  -0.332362  -0.207202  0  3.55859  0
N  N90  1  0.57223547  0.11615032  0.13998570  1  -1.198399  0  -0.331711  -0.206055  0  3.554303  0
N  N91  1  0.28700014  0.38418150  0.14027649  1  -1.199545  0  -0.332678  -0.207221  0  3.552347  0
O  O92  1  0.91158891  0.11743358  0.37287279  1  -1.141116  0  -0.287935  -0.540055  0  2.191737  0
O  O93  1  0.71488981  0.38304395  0.37295222  1  -1.135647  0  -0.288595  -0.540806  0  2.190113  0
O  O94  1  0.97093816  0.11720009  0.12660865  1  -1.13626  0  -0.28738  -0.53981  0  2.192777  0
O  O95  1  0.90194112  0.38292445  0.12660706  1  -1.141115  0  -0.288549  -0.541335  0  2.192362  0
O  O96  1  0.08839789  0.88257613  0.62713644  1  -1.140999  0  -0.287986  -0.540127  0  2.191678  0
O  O97  1  0.28510791  0.61695656  0.62704621  1  -1.135778  0  -0.28859  -0.540808  0  2.190322  0
O  O98  1  0.02906170  0.88279876  0.87339596  1  -1.136045  0  -0.287383  -0.539795  0  2.192766  0
O  O99  1  0.09804675  0.61707522  0.87339018  1  -1.140134  0  -0.288559  -0.541302  0  2.192179  0
O  O100  1  0.72153288  0.15866188  0.34196855  1  -1.162044  0  -0.289203  -0.539109  0  2.172665  0
O  O101  1  0.93608266  0.34153460  0.34187397  1  -1.150892  0  -0.289365  -0.538321  0  2.172795  0
O  O102  1  0.11944234  0.15882158  0.15760922  1  -1.143195  0  -0.288399  -0.536588  0  2.172754  0
O  O103  1  0.72215172  0.34157516  0.15772665  1  -1.157103  0  -0.288136  -0.538729  0  2.171444  0
O  O104  1  0.27846333  0.84133696  0.65802751  1  -1.161964  0  -0.289158  -0.539003  0  2.172665  0
O  O105  1  0.06391428  0.65846674  0.65811549  1  -1.150891  0  -0.289483  -0.538438  0  2.17261  0
O  O106  1  0.88055328  0.84118227  0.84239335  1  -1.143327  0  -0.288361  -0.536484  0  2.172877  0
O  O107  1  0.27784684  0.65842201  0.84227352  1  -1.156959  0  -0.288129  -0.538715  0  2.171253  0
