# generated using pymatgen
data_AlH36C39N7O6
_symmetry_space_group_name_H-M   'P 1'
_cell_length_a   3.99439330
_cell_length_b   18.03362986
_cell_length_c   18.05651438
_cell_angle_alpha   119.76605675
_cell_angle_beta   84.21806600
_cell_angle_gamma   93.63908636
_symmetry_Int_Tables_number   1
_chemical_formula_structural   AlH36C39N7O6
_chemical_formula_sum   'Al1 H36 C39 N7 O6'
_cell_volume   1123.18079943
_cell_formula_units_Z   1
loop_
 _symmetry_equiv_pos_site_id
 _symmetry_equiv_pos_as_xyz
  1  'x, y, z'
loop_
 _atom_site_type_symbol
 _atom_site_label
 _atom_site_symmetry_multiplicity
 _atom_site_fract_x
 _atom_site_fract_y
 _atom_site_fract_z
 _atom_site_occupancy
 _atom_site_pbe_bader_charge
 _atom_site_pbe_bader_spin_density
 _atom_site_pbe_cm5_charge
 _atom_site_pbe_ddec_charge
 _atom_site_pbe_ddec_spin_density
 _atom_site_pbe_ddec_sum_bond_order
 _atom_site_pbe_magmom
Al  Al0  1  0.00417011  0.00001404  0.49937452  1  2.505762  0  0.427635  1.590666  0  2.577511  0
H  H1  1  0.73676022  0.94450085  0.20071460  1  0.039514  0  0.090989  0.125881  0  0.992784  0
H  H2  1  0.78696781  0.95799002  0.30315947  1  0.042749  0  0.095503  0.133002  0  1.043421  0
H  H3  1  0.12133679  0.98439863  0.24855274  1  0.049742  0  0.092875  0.132152  0  1.019497  0
H  H4  1  0.11581743  0.03286727  0.16284479  1  0.027519  0  0.087512  0.121168  0  1.026002  0
H  H5  1  0.04514909  0.11958205  0.14742796  1  0.056372  0  0.088429  0.128481  0  1.056518  0
H  H6  1  0.74171410  0.03652083  0.11937135  1  0.050015  0  0.092955  0.132548  0  0.991635  0
H  H7  1  0.41506187  0.30639089  0.55780685  1  0.032353  0  0.090747  0.125313  0  0.994606  0
H  H8  1  0.33619661  0.20447123  0.54903289  1  0.048921  0  0.095441  0.135952  0  1.028289  0
H  H9  1  0.03214909  0.25083184  0.52101246  1  0.04668  0  0.093458  0.1338  0  1.018939  0
H  H10  1  0.10327834  0.33459195  0.46836132  1  0.024659  0  0.087739  0.121836  0  1.027163  0
H  H11  1  0.20809434  0.34440566  0.37636571  1  0.084733  0  0.088812  0.129277  0  1.043944  0
H  H12  1  0.49137712  0.38318895  0.45706193  1  0.044014  0  0.093015  0.133615  0  0.989266  0
H  H13  1  0.46587699  0.57227789  0.45486338  1  0.048443  0  0.091968  0.130549  0  1.003186  0
H  H14  1  0.13357473  0.53202362  0.38645595  1  0.088085  0  0.089619  0.131009  0  1.039279  0
H  H15  1  0.08727019  0.63042013  0.48260868  1  0.021966  0  0.08764  0.121873  0  1.013851  0
H  H16  1  0.09477328  0.78787561  0.54708336  1  0.046099  0  0.094794  0.136604  0  0.99957  0
H  H17  1  0.49896670  0.83535880  0.55424869  1  0.074991  0  0.094867  0.13443  0  1.018112  0
H  H18  1  0.44789863  0.73568073  0.55148001  1  0.011092  0  0.089871  0.121975  0  1.011672  0
H  H19  1  0.55286929  0.57589372  0.11314386  1  0.054797  0  0.092306  0.131244  0  1.00115  0
H  H20  1  0.88906380  0.53976496  0.14308138  1  0.073271  0  0.090469  0.132165  0  1.03099  0
H  H21  1  0.92371086  0.63984913  0.14694585  1  0.025016  0  0.087718  0.12203  0  1.01423  0
H  H22  1  0.88916153  0.79561682  0.23844852  1  0.04423  0  0.094597  0.135467  0  1.001403  0
H  H23  1  0.48253027  0.83778239  0.27873355  1  0.013215  0  0.095274  0.134221  0  1.015606  0
H  H24  1  0.53563098  0.73960728  0.18173441  1  -0.008648  0  0.089888  0.121797  0  1.010483  0
H  H25  1  0.90895311  0.02944785  0.86910575  1  0.050807  0  0.087452  0.120736  0  1.025713  0
H  H26  1  0.98819863  0.11693596  0.96998400  1  0.094167  0  0.08835  0.12842  0  1.054751  0
H  H27  1  0.28394231  0.03429519  0.91658607  1  0.040928  0  0.092634  0.131685  0  0.992838  0
H  H28  1  0.27294464  0.94141725  0.74359630  1  0.041269  0  0.091071  0.126419  0  0.993209  0
H  H29  1  0.22409198  0.95463678  0.65432230  1  0.030719  0  0.095471  0.133507  0  1.039217  0
H  H30  1  0.89321430  0.98133319  0.73522356  1  0.040854  0  0.092732  0.132476  0  1.018789  0
H  H31  1  0.94247067  0.33366863  0.86074796  1  0.016403  0  0.087612  0.121949  0  1.025484  0
H  H32  1  0.85468541  0.34054170  0.96158572  1  0.068234  0  0.088284  0.128427  0  1.045467  0
H  H33  1  0.56312374  0.38051380  0.92333054  1  0.042011  0  0.092855  0.133658  0  0.99144  0
H  H34  1  0.63265396  0.30377497  0.74402120  1  0.000834  0  0.090373  0.12474  0  0.994689  0
H  H35  1  0.69644079  0.20196161  0.65173262  1  0.046454  0  0.094943  0.134863  0  1.031746  0
H  H36  1  0.00911124  0.24796875  0.72481563  1  0.034628  0  0.093158  0.133761  0  1.017929  0
C  C37  1  0.55023591  0.06906644  0.43524969  1  1.572183  0  0.281021  0.672008  0  4.053216  0
C  C38  1  0.46752751  0.06625835  0.63176283  1  1.60174  0  0.280641  0.672407  0  4.055067  0
C  C39  1  0.49698316  0.86815986  0.43217524  1  1.507597  0  0.280281  0.671789  0  4.027226  0
C  C40  1  0.47438163  0.24499519  0.38067776  1  -0.024218  0  0.004144  0.100917  0  3.887178  0
C  C41  1  0.62507180  0.20449214  0.29532487  1  -0.005525  0  -0.00672  -0.114059  0  3.886228  0
C  C42  1  0.28199443  0.11715077  0.86183413  1  -0.017136  0  0.004067  0.101685  0  3.895238  0
C  C43  1  0.41624617  0.20155897  0.90547686  1  -0.00084  0  -0.005968  -0.112737  0  3.888062  0
C  C44  1  0.50881397  0.59507914  0.29469527  1  0.007909  0  -0.004663  -0.108065  0  3.901647  0
C  C45  1  0.60331766  0.64055459  0.25044093  1  0.01761  0  0.002283  0.097458  0  3.896072  0
C  C46  1  0.56950965  0.24212307  0.86006561  1  -0.071291  0  0.003114  0.099201  0  3.891359  0
C  C47  1  0.57910554  0.19833400  0.77006715  1  0.043717  0  -0.009138  0.078777  0  3.940089  0
C  C48  1  0.44848327  0.11457113  0.72774667  1  -0.017033  0  -0.005776  -0.131547  0  3.915831  0
C  C49  1  0.30390696  0.07308820  0.77180943  1  0.045103  0  -0.009042  0.079172  0  3.943275  0
C  C50  1  0.57657471  0.72999534  0.29479181  1  0.0272  0  -0.004771  0.093188  0  3.920909  0
C  C51  1  0.49674728  0.77273013  0.38404734  1  0.094858  0  -0.010113  -0.147381  0  3.912152  0
C  C52  1  0.42040490  0.72777250  0.42909641  1  -0.099484  0  -0.004307  0.092682  0  3.921148  0
C  C53  1  0.40702854  0.63796667  0.38332938  1  0.058855  0  0.003386  0.10043  0  3.893451  0
C  C54  1  0.75070081  0.12022697  0.25591261  1  0.061121  0  0.003857  0.101152  0  3.894148  0
C  C55  1  0.72213431  0.07624648  0.30242733  1  0.008875  0  -0.009011  0.080051  0  3.941619  0
C  C56  1  0.57992496  0.11762861  0.38724831  1  -0.105101  0  -0.005379  -0.130243  0  3.9138  0
C  C57  1  0.45840040  0.20122824  0.42745470  1  0.022957  0  -0.009664  0.076631  0  3.939846  0
C  C58  1  0.63045699  0.37736460  0.24681913  1  1.520345  0  0.359169  0.495513  0  4.08862  0
C  C59  1  0.52234179  0.24288553  0.11993742  1  1.536794  0  0.35965  0.48851  0  4.110053  0
C  C60  1  0.63304083  0.24938938  0.24535770  1  1.089775  0  0.26457  0.410054  0  3.995995  0
C  C61  1  0.51551892  0.50063678  0.24733222  1  1.045612  0  0.269253  0.417763  0  3.991577  0
C  C62  1  0.41096036  0.37581516  0.12478028  1  1.556775  0  0.359546  0.498454  0  4.086559  0
C  C63  1  0.41132601  0.24711647  0.99991349  1  1.091499  0  0.265668  0.411456  0  3.996473  0
C  C64  1  0.84656127  0.98620101  0.26192719  1  -0.045498  0  -0.241028  -0.408908  0  3.958536  0
C  C65  1  0.92228308  0.07546327  0.16688396  1  -0.044068  0  -0.246633  -0.414657  0  3.987692  0
C  C66  1  0.30419118  0.24266142  0.51847756  1  -0.048569  0  -0.241104  -0.408964  0  3.958667  0
C  C67  1  0.31142003  0.33114321  0.42236691  1  -0.082487  0  -0.245147  -0.414418  0  3.978077  0
C  C68  1  0.26765117  0.59057108  0.42920480  1  -0.070225  0  -0.24469  -0.414174  0  3.9791  0
C  C69  1  0.36244372  0.77405905  0.52538110  1  -0.050705  0  -0.241247  -0.410207  0  3.971706  0
C  C70  1  0.74860559  0.59660277  0.15851960  1  -0.085283  0  -0.243703  -0.413387  0  3.976075  0
C  C71  1  0.62382581  0.77823819  0.24600969  1  -0.003353  0  -0.240742  -0.408655  0  3.970642  0
C  C72  1  0.10684433  0.07261334  0.90706994  1  -0.106242  0  -0.246651  -0.413991  0  3.98679  0
C  C73  1  0.16823970  0.98301763  0.72349464  1  -0.069012  0  -0.240569  -0.409316  0  3.958483  0
C  C74  1  0.74067952  0.32859388  0.90391828  1  -0.05015  0  -0.245691  -0.414127  0  3.976942  0
C  C75  1  0.73564478  0.23995970  0.71991566  1  -0.014273  0  -0.240546  -0.408343  0  3.956927  0
N  N76  1  0.52130010  0.33227595  0.16396662  1  -1.187207  0  -0.196944  -0.240009  0  3.61586  0
N  N77  1  0.55908457  0.20228668  0.16319545  1  -1.191843  0  -0.306437  -0.420554  0  3.248821  0
N  N78  1  0.70585279  0.33415722  0.28525489  1  -1.181446  0  -0.315915  -0.442104  0  3.212257  0
N  N79  1  0.64880187  0.46242773  0.28538559  1  -1.196823  0  -0.307912  -0.429236  0  3.221405  0
N  N80  1  0.38646928  0.46066664  0.17030799  1  -1.219325  0  -0.310664  -0.434209  0  3.21568  0
N  N81  1  0.48587679  0.20122960  0.03624376  1  -1.211023  0  -0.306281  -0.420485  0  3.247342  0
N  N82  1  0.33876937  0.33129886  0.04302126  1  -1.211611  0  -0.31529  -0.443075  0  3.217857  0
O  O83  1  0.24670666  0.90564398  0.48572958  1  -1.25644  0  -0.234181  -0.598596  0  2.392589  0
O  O84  1  0.30754481  0.01517595  0.41941090  1  -1.265364  0  -0.232966  -0.594011  0  2.388441  0
O  O85  1  0.24870120  0.08150632  0.59461328  1  -1.254412  0  -0.230689  -0.591653  0  2.38794  0
O  O86  1  0.74935983  0.90765681  0.41757769  1  -1.264088  0  -0.234761  -0.601374  0  2.398711  0
O  O87  1  0.70158243  0.01189985  0.59304831  1  -1.261128  0  -0.233318  -0.595558  0  2.381992  0
O  O88  1  0.76844938  0.08356278  0.48788579  1  -1.252222  0  -0.232045  -0.592955  0  2.384648  0
