# generated using pymatgen
data_ZnH18C28(N4O3)2
_symmetry_space_group_name_H-M   'P 1'
_cell_length_a   16.35897928
_cell_length_b   16.35897237
_cell_length_c   25.75378605
_cell_angle_alpha   89.99989248
_cell_angle_beta   89.99994291
_cell_angle_gamma   119.99996083
_symmetry_Int_Tables_number   1
_chemical_formula_structural   ZnH18C28(N4O3)2
_chemical_formula_sum   'Zn6 H108 C168 N48 O36'
_cell_volume   5968.75988032
_cell_formula_units_Z   6
loop_
 _symmetry_equiv_pos_site_id
 _symmetry_equiv_pos_as_xyz
  1  'x, y, z'
loop_
 _atom_site_type_symbol
 _atom_site_label
 _atom_site_symmetry_multiplicity
 _atom_site_fract_x
 _atom_site_fract_y
 _atom_site_fract_z
 _atom_site_occupancy
 _atom_site_pbe_bader_charge
 _atom_site_pbe_bader_spin_density
 _atom_site_pbe_cm5_charge
 _atom_site_pbe_ddec_charge
 _atom_site_pbe_ddec_spin_density
 _atom_site_pbe_ddec_sum_bond_order
 _atom_site_pbe_magmom
Zn  Zn0  1  0.42602082  0.71300884  0.16666464  1  1.247175  0  0.684395  0.746806  0  2.359119  0
Zn  Zn1  1  0.28699138  0.71301205  0.83333443  1  1.246783  0  0.684397  0.746788  0  2.359028  0
Zn  Zn2  1  0.28699067  0.57397990  0.49999906  1  1.24726  0  0.68443  0.74689  0  2.358967  0
Zn  Zn3  1  0.57397706  0.28698988  0.16666485  1  1.247221  0  0.684386  0.746787  0  2.358973  0
Zn  Zn4  1  0.71301272  0.28699157  0.83333455  1  1.246689  0  0.68439  0.746813  0  2.359089  0
Zn  Zn5  1  0.71301181  0.42602099  0.49999901  1  1.24706  0  0.684408  0.746845  0  2.359012  0
H  H6  1  0.64448411  0.06895751  0.20352478  1  0.098933  0  0.112398  0.131102  0  1.017745  0
H  H7  1  0.71249281  0.18086246  0.13969097  1  0.516281  0  0.309483  0.287732  0  1.016169  0
H  H8  1  0.53593705  0.90133459  0.22653957  1  0.09742  0  0.119704  0.093712  0  0.995056  0
H  H9  1  0.49612761  0.82188670  0.07114073  1  0.146566  0  0.118084  0.095354  0  1.019303  0
H  H10  1  0.60299015  0.98462661  0.04198256  1  0.17021  0  0.114454  0.144568  0  1.048888  0
H  H11  1  0.82722769  0.30358973  0.14412516  1  0.148393  0  0.121017  0.099809  0  1.019105  0
H  H12  1  0.81864668  0.28006475  0.97670451  1  0.138674  0  0.115956  0.081495  0  1.004802  0
H  H13  1  0.21262886  0.39364805  0.08319601  1  0.080159  0  0.104228  0.101703  0  1.006584  0
H  H14  1  0.93104014  0.57552232  0.87019297  1  0.090645  0  0.112393  0.131069  0  1.017769  0
H  H15  1  0.81913865  0.53162963  0.80635970  1  0.553104  0  0.30946  0.287712  0  1.016187  0
H  H16  1  0.09866296  0.63459876  0.89320884  1  0.098524  0  0.1197  0.093734  0  0.995076  0
H  H17  1  0.17811762  0.67424631  0.73780989  1  0.147887  0  0.118051  0.09535  0  1.019308  0
H  H18  1  0.01537737  0.61836560  0.70865116  1  0.160241  0  0.114453  0.144584  0  1.048904  0
H  H19  1  0.69641996  0.52364708  0.81079676  1  0.140414  0  0.121066  0.099829  0  1.018933  0
H  H20  1  0.71993065  0.53857963  0.64337398  1  0.117796  0  0.115971  0.081415  0  1.004876  0
H  H21  1  0.60635286  0.81897919  0.74986460  1  0.099221  0  0.104223  0.101647  0  1.006573  0
H  H22  1  0.42447242  0.35551482  0.53685780  1  0.092255  0  0.112405  0.131113  0  1.017746  0
H  H23  1  0.46836891  0.28750706  0.47302450  1  0.51882  0  0.30947  0.287696  0  1.016207  0
H  H24  1  0.36539604  0.46406123  0.55987379  1  0.097226  0  0.119707  0.093701  0  0.995028  0
H  H25  1  0.32575872  0.50387534  0.40447333  1  0.100843  0  0.118058  0.095339  0  1.019246  0
H  H26  1  0.38163873  0.39701423  0.37531455  1  0.160159  0  0.114431  0.144548  0  1.04883  0
H  H27  1  0.47636405  0.17277295  0.47745731  1  0.141383  0  0.120988  0.099752  0  1.01908  0
H  H28  1  0.46142182  0.18135613  0.31003649  1  0.113847  0  0.115988  0.081537  0  1.00485  0
H  H29  1  0.18102219  0.78737610  0.41652774  1  0.094524  0  0.104236  0.10169  0  1.006554  0
H  H30  1  0.35551497  0.93103602  0.20352436  1  0.097963  0  0.11236  0.131063  0  1.017707  0
H  H31  1  0.28750659  0.81913498  0.13969111  1  0.516251  0  0.30948  0.287712  0  1.016188  0
H  H32  1  0.46406123  0.09865953  0.22654047  1  0.096103  0  0.119712  0.093699  0  0.995124  0
H  H33  1  0.50386925  0.17811390  0.07114112  1  0.146589  0  0.118066  0.095393  0  1.019246  0
H  H34  1  0.39700885  0.01537334  0.04198204  1  0.169803  0  0.11445  0.144548  0  1.048849  0
H  H35  1  0.17277054  0.69641007  0.14412474  1  0.147826  0  0.121002  0.099793  0  1.01905  0
H  H36  1  0.18135212  0.71993555  0.97670406  1  0.138309  0  0.115946  0.081496  0  1.004771  0
H  H37  1  0.78737059  0.60635231  0.08319609  1  0.080085  0  0.104223  0.101694  0  1.006628  0
H  H38  1  0.06896075  0.42447806  0.87019255  1  0.090634  0  0.11242  0.131121  0  1.017754  0
H  H39  1  0.18086286  0.46837072  0.80636071  1  0.553086  0  0.309443  0.287679  0  1.016164  0
H  H40  1  0.90133855  0.36540080  0.89320875  1  0.098513  0  0.119698  0.0937  0  0.995139  0
H  H41  1  0.82188564  0.32575656  0.73781106  1  0.147527  0  0.118039  0.095342  0  1.01935  0
H  H42  1  0.98462566  0.38163777  0.70865138  1  0.160239  0  0.114434  0.144571  0  1.048875  0
H  H43  1  0.30358284  0.47635315  0.81079730  1  0.140873  0  0.121067  0.099832  0  1.018984  0
H  H44  1  0.28007213  0.46142213  0.64337378  1  0.118543  0  0.115975  0.081435  0  1.004843  0
H  H45  1  0.39364791  0.18102118  0.74986660  1  0.099263  0  0.104238  0.101668  0  1.006582  0
H  H46  1  0.57552336  0.64448145  0.53685836  1  0.092158  0  0.112388  0.131073  0  1.017777  0
H  H47  1  0.53162906  0.71249005  0.47302655  1  0.518405  0  0.309443  0.287664  0  1.01621  0
H  H48  1  0.63460122  0.53593580  0.55987366  1  0.097778  0  0.119699  0.093678  0  0.995057  0
H  H49  1  0.67424528  0.49612858  0.40447439  1  0.101008  0  0.11805  0.095386  0  1.019193  0
H  H50  1  0.61836442  0.60298957  0.37531630  1  0.160208  0  0.114464  0.144588  0  1.048841  0
H  H51  1  0.52363458  0.82722834  0.47745962  1  0.141206  0  0.12103  0.099815  0  1.019097  0
H  H52  1  0.53858056  0.81864413  0.31003958  1  0.11412  0  0.115961  0.081488  0  1.004775  0
H  H53  1  0.81897565  0.21262164  0.41652944  1  0.091645  0  0.104236  0.101672  0  1.006553  0
H  H54  1  0.06895879  0.64448459  0.46314315  1  0.098078  0  0.112411  0.131115  0  1.017729  0
H  H55  1  0.18086168  0.71248986  0.52697563  1  0.516697  0  0.309481  0.287751  0  1.016122  0
H  H56  1  0.90133538  0.53593865  0.44012652  1  0.097423  0  0.119699  0.093692  0  0.995028  0
H  H57  1  0.82188298  0.49612748  0.59552586  1  0.14684  0  0.118064  0.095362  0  1.019225  0
H  H58  1  0.98462385  0.60298752  0.62468495  1  0.169712  0  0.114456  0.144581  0  1.048811  0
H  H59  1  0.30359060  0.82722434  0.52254200  1  0.147792  0  0.121033  0.099833  0  1.019093  0
H  H60  1  0.28006498  0.81864575  0.68996322  1  0.138677  0  0.115964  0.081529  0  1.004738  0
H  H61  1  0.39364534  0.21262672  0.58347202  1  0.080194  0  0.104213  0.101668  0  1.006596  0
H  H62  1  0.57552017  0.93104048  0.79647477  1  0.090041  0  0.112399  0.131117  0  1.017705  0
H  H63  1  0.53162824  0.81913759  0.86030974  1  0.552311  0  0.309491  0.28775  0  1.016171  0
H  H64  1  0.63459732  0.09866449  0.77345961  1  0.098548  0  0.119702  0.093707  0  0.995058  0
H  H65  1  0.67424471  0.17811550  0.92885922  1  0.148317  0  0.118066  0.095355  0  1.019264  0
H  H66  1  0.61836421  0.01537468  0.95801777  1  0.160122  0  0.114441  0.144554  0  1.048868  0
H  H67  1  0.52363835  0.69641152  0.85587552  1  0.140874  0  0.121018  0.099771  0  1.019151  0
H  H68  1  0.53858369  0.71993687  0.02329539  1  0.11718  0  0.115951  0.081487  0  1.004759  0
H  H69  1  0.81898347  0.60635254  0.91680244  1  0.0992  0  0.104236  0.101722  0  1.006548  0
H  H70  1  0.35551614  0.42447788  0.12980657  1  0.092115  0  0.112409  0.131067  0  1.017724  0
H  H71  1  0.28750684  0.46836931  0.19363873  1  0.518301  0  0.309447  0.287692  0  1.016131  0
H  H72  1  0.46406232  0.36540058  0.10679015  1  0.097131  0  0.119682  0.093683  0  0.995128  0
H  H73  1  0.50387221  0.32575622  0.26218906  1  0.100581  0  0.118041  0.095321  0  1.019357  0
H  H74  1  0.39701297  0.38163668  0.29134904  1  0.160063  0  0.114431  0.144574  0  1.048874  0
H  H75  1  0.17276763  0.47635013  0.18920369  1  0.141013  0  0.12105  0.099813  0  1.019085  0
H  H76  1  0.18135261  0.46142171  0.35662568  1  0.114415  0  0.115992  0.081482  0  1.004804  0
H  H77  1  0.78737273  0.18102090  0.25013335  1  0.094406  0  0.104237  0.101648  0  1.00654  0
H  H78  1  0.93104060  0.35551607  0.46314305  1  0.098059  0  0.11241  0.131132  0  1.017742  0
H  H79  1  0.81913947  0.28750968  0.52697607  1  0.516526  0  0.3095  0.287769  0  1.016137  0
H  H80  1  0.09866471  0.46406273  0.44012605  1  0.097421  0  0.119704  0.093711  0  0.995033  0
H  H81  1  0.17811694  0.50387146  0.59552606  1  0.14723  0  0.118043  0.095377  0  1.019234  0
H  H82  1  0.01537630  0.39701092  0.62468538  1  0.169929  0  0.114434  0.144545  0  1.048876  0
H  H83  1  0.69640890  0.17277567  0.52254226  1  0.148221  0  0.121038  0.099865  0  1.019087  0
H  H84  1  0.71993359  0.18135247  0.68996229  1  0.1374  0  0.11597  0.081509  0  1.004791  0
H  H85  1  0.60635340  0.78737106  0.58347083  1  0.080177  0  0.104221  0.101698  0  1.00662  0
H  H86  1  0.42447724  0.06896283  0.79647495  1  0.090574  0  0.112382  0.131076  0  1.01772  0
H  H87  1  0.46837154  0.18086521  0.86030976  1  0.553134  0  0.309481  0.287695  0  1.016206  0
H  H88  1  0.36540079  0.90133954  0.77345883  1  0.098418  0  0.119699  0.093674  0  0.995115  0
H  H89  1  0.32575692  0.82188485  0.92885895  1  0.14787  0  0.118033  0.095313  0  1.019248  0
H  H90  1  0.38163563  0.98462597  0.95801843  1  0.160128  0  0.114444  0.144581  0  1.048837  0
H  H91  1  0.47636084  0.30359069  0.85587499  1  0.140949  0  0.121001  0.099787  0  1.019141  0
H  H92  1  0.46141844  0.28006623  0.02329645  1  0.117613  0  0.115966  0.081508  0  1.004783  0
H  H93  1  0.18102004  0.39364970  0.91680238  1  0.098037  0  0.104217  0.10169  0  1.006577  0
H  H94  1  0.64448408  0.57552250  0.12980677  1  0.09206  0  0.112393  0.131037  0  1.017736  0
H  H95  1  0.71249286  0.53162979  0.19364011  1  0.518252  0  0.309484  0.287688  0  1.01623  0
H  H96  1  0.53593678  0.63459870  0.10678996  1  0.098115  0  0.119687  0.093695  0  0.995108  0
H  H97  1  0.49612931  0.67424534  0.26218924  1  0.10036  0  0.118043  0.095316  0  1.019345  0
H  H98  1  0.60298878  0.61836438  0.29135000  1  0.160512  0  0.114448  0.144585  0  1.04886  0
H  H99  1  0.82723157  0.52364706  0.18920423  1  0.14056  0  0.121044  0.09982  0  1.019022  0
H  H100  1  0.81864801  0.53857746  0.35662543  1  0.113408  0  0.11599  0.081445  0  1.004897  0
H  H101  1  0.21262848  0.81898107  0.25013276  1  0.091604  0  0.104217  0.101646  0  1.006533  0
H  H102  1  0.32805569  0.65611467  0.99999927  1  0.140465  0  0.106898  0.112275  0  1.010697  0
H  H103  1  0.15227400  0.30454695  0.99999876  1  0.091786  0  0.105245  0.102479  0  0.98729  0
H  H104  1  0.34388751  0.67194524  0.66666807  1  0.140476  0  0.106913  0.112279  0  1.010738  0
H  H105  1  0.69545395  0.84772438  0.66666785  1  0.091746  0  0.105214  0.102417  0  0.987338  0
H  H106  1  0.32805646  0.67194307  0.33333223  1  0.094785  0  0.106916  0.112278  0  1.010728  0
H  H107  1  0.15227366  0.84772725  0.33332985  1  0.066722  0  0.105203  0.10241  0  0.987393  0
H  H108  1  0.67194469  0.34388506  0.99999973  1  0.140492  0  0.106897  0.112275  0  1.010684  0
H  H109  1  0.84772836  0.69545690  0.99999908  1  0.061492  0  0.105203  0.102411  0  0.987332  0
H  H110  1  0.65611351  0.32805685  0.66666701  1  0.090784  0  0.10693  0.112309  0  1.010666  0
H  H111  1  0.30454481  0.15227263  0.66666995  1  0.061483  0  0.105206  0.102395  0  0.987322  0
H  H112  1  0.67194284  0.32805762  0.33333233  1  0.094663  0  0.106909  0.112271  0  1.010703  0
H  H113  1  0.84772523  0.15227020  0.33333082  1  0.06679  0  0.105221  0.10243  0  0.987339  0
C  C114  1  0.63418795  0.04172236  0.12037508  1  0.362305  0  0.123606  0.299342  0  3.99548  0
C  C115  1  0.61376805  0.01582008  0.17309823  1  0.00225  0  -0.089372  -0.229199  0  3.931368  0
C  C116  1  0.95790397  0.45124041  0.05434289  1  1.057981  0  0.255119  0.284962  0  3.971174  0
C  C117  1  0.73331651  0.17361942  0.06050727  1  1.396775  0  0.248979  0.495918  0  4.099339  0
C  C118  1  0.55340502  0.92227749  0.18599212  1  0.452815  0  0.042008  0.096939  0  3.976189  0
C  C119  1  0.81058613  0.27423370  0.06048156  1  0.012605  0  -0.011157  -0.127373  0  3.966737  0
C  C120  1  0.53117995  0.87830446  0.09951632  1  0.434347  0  0.043534  0.107051  0  3.942418  0
C  C121  1  0.59060752  0.96996336  0.08305032  1  0.03934  0  -0.08889  -0.219126  0  3.909295  0
C  C122  1  0.85216075  0.32917220  0.10484004  1  0.496821  0  0.069908  0.108143  0  3.925141  0
C  C123  1  0.31566010  0.58019709  0.09669718  1  1.568056  0  0.208022  0.576669  0  4.202378  0
C  C124  1  0.84925264  0.31844541  0.01279106  1  0.487529  0  0.069507  0.116441  0  3.943324  0
C  C125  1  0.27566651  0.52987478  0.04656673  1  0.067676  0  -0.018962  -0.039555  0  3.974228  0
C  C126  1  0.22464839  0.43086157  0.04640760  1  -0.100325  0  -0.075979  -0.073725  0  3.955967  0
C  C127  1  0.95827808  0.59246475  0.78704323  1  0.393258  0  0.123598  0.299267  0  3.995535  0
C  C128  1  0.98417841  0.59794265  0.83976712  1  0.070646  0  -0.089397  -0.229181  0  3.931328  0
C  C129  1  0.54875955  0.50666450  0.72101778  1  1.05186  0  0.255049  0.284699  0  3.971501  0
C  C130  1  0.82638322  0.55970179  0.72717443  1  1.390212  0  0.249033  0.496063  0  4.099264  0
C  C131  1  0.07772062  0.63112414  0.85266103  1  0.39004  0  0.041992  0.096826  0  3.976508  0
C  C132  1  0.72576846  0.53635658  0.72715389  1  -0.03264  0  -0.011055  -0.12747  0  3.966608  0
C  C133  1  0.12169706  0.65287831  0.76618556  1  0.501026  0  0.043403  0.1068  0  3.942883  0
C  C134  1  0.03003836  0.62064312  0.74971929  1  -0.030642  0  -0.088901  -0.219098  0  3.909501  0
C  C135  1  0.67083024  0.52299087  0.77151089  1  0.539451  0  0.069853  0.108124  0  3.925189  0
C  C136  1  0.41980251  0.73546265  0.76336719  1  1.544043  0  0.208054  0.576873  0  4.202271  0
C  C137  1  0.68155259  0.53080798  0.67946345  1  0.529725  0  0.069428  0.116632  0  3.94321  0
C  C138  1  0.47012522  0.74579183  0.71323667  1  0.100696  0  -0.018985  -0.039754  0  3.974294  0
C  C139  1  0.56913967  0.79378525  0.71307741  1  -0.12305  0  -0.075978  -0.073645  0  3.95585  0
C  C140  1  0.40753532  0.36581375  0.45370809  1  0.391225  0  0.123614  0.299374  0  3.995455  0
C  C141  1  0.40205319  0.38623423  0.50643081  1  -0.000158  0  -0.089361  -0.229204  0  3.931403  0
C  C142  1  0.49333737  0.04209487  0.38767524  1  1.054073  0  0.255033  0.284779  0  3.971281  0
C  C143  1  0.44030252  0.26668202  0.39383810  1  1.389912  0  0.2489  0.495826  0  4.099415  0
C  C144  1  0.36887249  0.44659509  0.51932520  1  0.457062  0  0.041995  0.096897  0  3.976239  0
C  C145  1  0.46364862  0.18941322  0.39381446  1  -0.008572  0  -0.011105  -0.127277  0  3.966806  0
C  C146  1  0.34712573  0.46882150  0.43285014  1  0.505449  0  0.043516  0.107003  0  3.942731  0
C  C147  1  0.37935635  0.40939731  0.41638463  1  -0.000107  0  -0.088881  -0.21914  0  3.909388  0
C  C148  1  0.47701300  0.14783904  0.43817223  1  0.508937  0  0.069916  0.108116  0  3.925127  0
C  C149  1  0.26453780  0.68434080  0.43003142  1  1.544304  0  0.208018  0.576756  0  4.202529  0
C  C150  1  0.46919467  0.15075040  0.34612324  1  0.516325  0  0.069455  0.116318  0  3.943422  0
C  C151  1  0.25420803  0.72433403  0.37989936  1  -0.055211  0  -0.018988  -0.039764  0  3.974185  0
C  C152  1  0.20621457  0.77535460  0.37974014  1  0.029027  0  -0.075952  -0.073631  0  3.955844  0
C  C153  1  0.36581066  0.95827360  0.12037423  1  0.36133  0  0.123601  0.299313  0  3.995677  0
C  C154  1  0.38623228  0.98417614  0.17309850  1  0.002601  0  -0.089341  -0.229168  0  3.931232  0
C  C155  1  0.04209787  0.54876025  0.05434235  1  1.081034  0  0.255094  0.284874  0  3.971256  0
C  C156  1  0.26668656  0.82637752  0.06050703  1  1.396719  0  0.248951  0.495893  0  4.099334  0
C  C157  1  0.44659297  0.07771850  0.18599188  1  0.455303  0  0.041996  0.096903  0  3.976436  0
C  C158  1  0.18941350  0.72576545  0.06048071  1  0.011105  0  -0.011113  -0.127262  0  3.96669  0
C  C159  1  0.46881531  0.12169382  0.09951602  1  0.434785  0  0.043585  0.106968  0  3.942381  0
C  C160  1  0.40939044  0.03003481  0.08305017  1  0.04118  0  -0.088916  -0.219096  0  3.909331  0
C  C161  1  0.14783896  0.67082770  0.10483928  1  0.495383  0  0.069868  0.108056  0  3.925149  0
C  C162  1  0.68433781  0.41980101  0.09669988  1  1.56678  0  0.20805  0.576839  0  4.202323  0
C  C163  1  0.15074780  0.68155459  0.01279067  1  0.491357  0  0.069487  0.116371  0  3.943353  0
C  C164  1  0.72433572  0.47012556  0.04656779  1  0.068345  0  -0.01896  -0.039669  0  3.974086  0
C  C165  1  0.77535374  0.56914010  0.04640812  1  -0.099648  0  -0.075971  -0.073724  0  3.95603  0
C  C166  1  0.04172402  0.40753762  0.78704402  1  0.390487  0  0.123558  0.299178  0  3.995602  0
C  C167  1  0.01582313  0.40205980  0.83976754  1  0.066655  0  -0.089384  -0.229225  0  3.93139  0
C  C168  1  0.45124132  0.49334093  0.72101782  1  1.088466  0  0.255006  0.284649  0  3.971348  0
C  C169  1  0.17361964  0.44030280  0.72717471  1  1.389971  0  0.24901  0.496071  0  4.099161  0
C  C170  1  0.92228096  0.36887694  0.85266208  1  0.390199  0  0.042015  0.09692  0  3.976521  0
C  C171  1  0.27423311  0.46364319  0.72715253  1  -0.031978  0  -0.011031  -0.127362  0  3.966653  0
C  C172  1  0.87830512  0.34712416  0.76618589  1  0.502228  0  0.04343  0.10682  0  3.942905  0
C  C173  1  0.96996319  0.37936014  0.74971952  1  -0.024698  0  -0.088857  -0.219062  0  3.90945  0
C  C174  1  0.32916983  0.47700878  0.77151180  1  0.53827  0  0.069866  0.10809  0  3.925042  0
C  C175  1  0.58019776  0.26453932  0.76336858  1  1.545389  0  0.208082  0.576924  0  4.202158  0
C  C176  1  0.31844628  0.46919126  0.67946476  1  0.528839  0  0.069312  0.116433  0  3.942922  0
C  C177  1  0.52987448  0.25420749  0.71323617  1  0.100141  0  -0.018999  -0.039794  0  3.974325  0
C  C178  1  0.43086012  0.20621276  0.71307781  1  -0.128681  0  -0.075994  -0.073715  0  3.955881  0
C  C179  1  0.59246420  0.63418564  0.45371020  1  0.391113  0  0.12361  0.299267  0  3.995494  0
C  C180  1  0.59794489  0.61376367  0.50643217  1  -0.000434  0  -0.089389  -0.229187  0  3.931607  0
C  C181  1  0.50665884  0.95789986  0.38767741  1  1.086396  0  0.25515  0.284993  0  3.971277  0
C  C182  1  0.55969638  0.73331609  0.39384128  1  1.38931  0  0.248947  0.495962  0  4.099314  0
C  C183  1  0.63112728  0.55340590  0.51932622  1  0.456094  0  0.041966  0.096942  0  3.976341  0
C  C184  1  0.53635449  0.81058557  0.39381600  1  -0.012138  0  -0.011088  -0.127393  0  3.966662  0
C  C185  1  0.65287841  0.53118323  0.43285001  1  0.50362  0  0.043477  0.106904  0  3.942656  0
C  C186  1  0.62064542  0.59060507  0.41638599  1  0.000147  0  -0.08892  -0.219116  0  3.90946  0
C  C187  1  0.52298668  0.85215911  0.43817490  1  0.508359  0  0.069885  0.108167  0  3.924997  0
C  C188  1  0.73546365  0.31566054  0.43003188  1  1.543767  0  0.20805  0.57679  0  4.202324  0
C  C189  1  0.53080651  0.84925075  0.34612591  1  0.520689  0  0.069493  0.116525  0  3.943283  0
C  C190  1  0.74579118  0.27566511  0.37990025  1  -0.056465  0  -0.018994  -0.039772  0  3.974196  0
C  C191  1  0.79378499  0.22464419  0.37974028  1  0.034534  0  -0.075968  -0.073625  0  3.955874  0
C  C192  1  0.04172216  0.63418552  0.54629210  1  0.359299  0  0.123555  0.299246  0  3.995452  0
C  C193  1  0.01581977  0.61376620  0.49356900  1  0.003056  0  -0.089343  -0.229167  0  3.931363  0
C  C194  1  0.45123967  0.95790262  0.61232284  1  1.080854  0  0.255117  0.284921  0  3.971255  0
C  C195  1  0.17361794  0.73331356  0.60616048  1  1.396754  0  0.249048  0.496007  0  4.099188  0
C  C196  1  0.92227871  0.55340706  0.48067511  1  0.453911  0  0.042013  0.096962  0  3.976197  0
C  C197  1  0.27423305  0.81058478  0.60618642  1  0.0131  0  -0.011107  -0.127277  0  3.966584  0
C  C198  1  0.87830399  0.53118169  0.56714980  1  0.433799  0  0.043519  0.10703  0  3.942681  0
C  C199  1  0.96995789  0.59060431  0.58361605  1  0.041271  0  -0.088871  -0.21913  0  3.909384  0
C  C200  1  0.32917157  0.85215733  0.56182591  1  0.495553  0  0.0699  0.108123  0  3.924881  0
C  C201  1  0.58019462  0.31565899  0.56996903  1  1.566672  0  0.208122  0.576858  0  4.202228  0
C  C202  1  0.31844601  0.84925326  0.65387529  1  0.489046  0  0.069461  0.116323  0  3.943429  0
C  C203  1  0.52987298  0.27566674  0.62010034  1  0.065631  0  -0.018996  -0.039745  0  3.974211  0
C  C204  1  0.43085781  0.22464451  0.62025960  1  -0.099776  0  -0.076006  -0.073702  0  3.955983  0
C  C205  1  0.59246329  0.95827699  0.87962486  1  0.396701  0  0.123552  0.299279  0  3.995589  0
C  C206  1  0.59794195  0.98417950  0.82690211  1  0.067336  0  -0.089402  -0.229277  0  3.931375  0
C  C207  1  0.50666003  0.54875814  0.94565736  1  1.050949  0  0.255115  0.284934  0  3.971237  0
C  C208  1  0.55969207  0.82637876  0.93949420  1  1.389153  0  0.248986  0.495991  0  4.099216  0
C  C209  1  0.63112277  0.07772292  0.81400784  1  0.390131  0  0.042026  0.096908  0  3.976237  0
C  C210  1  0.53635314  0.72576743  0.93951912  1  -0.029914  0  -0.011157  -0.127346  0  3.966789  0
C  C211  1  0.65287735  0.12169697  0.90048324  1  0.50139  0  0.043413  0.106884  0  3.94257  0
C  C212  1  0.62064278  0.03003744  0.91695001  1  -0.030526  0  -0.088857  -0.219101  0  3.909306  0
C  C213  1  0.52298858  0.67082964  0.89516063  1  0.536496  0  0.069887  0.108144  0  3.925096  0
C  C214  1  0.73546583  0.41980455  0.90330088  1  1.545384  0  0.20805  0.576776  0  4.202399  0
C  C215  1  0.53080824  0.68155596  0.98720884  1  0.530302  0  0.069505  0.11647  0  3.943472  0
C  C216  1  0.74579708  0.47012721  0.95343250  1  0.100531  0  -0.018978  -0.039641  0  3.974157  0
C  C217  1  0.79379278  0.56914188  0.95359085  1  -0.124093  0  -0.076053  -0.073857  0  3.956022  0
C  C218  1  0.36581365  0.40753654  0.21295629  1  0.390116  0  0.123578  0.299187  0  3.995659  0
C  C219  1  0.38623548  0.40205718  0.16023239  1  -0.000325  0  -0.089358  -0.229128  0  3.931343  0
C  C220  1  0.04209426  0.49333519  0.27898314  1  1.05382  0  0.255028  0.284762  0  3.971505  0
C  C221  1  0.26668426  0.44030464  0.27282439  1  1.389663  0  0.248977  0.496008  0  4.099028  0
C  C222  1  0.44659513  0.36887528  0.14733797  1  0.458728  0  0.042015  0.096903  0  3.976495  0
C  C223  1  0.18941177  0.46364351  0.27284770  1  -0.005357  0  -0.011068  -0.127378  0  3.966628  0
C  C224  1  0.46882046  0.34712390  0.23381381  1  0.50472  0  0.043431  0.106829  0  3.94286  0
C  C225  1  0.40939717  0.37935965  0.25028013  1  0.002064  0  -0.088821  -0.219021  0  3.909419  0
C  C226  1  0.14783861  0.47700609  0.22848879  1  0.506096  0  0.069845  0.108126  0  3.925055  0
C  C227  1  0.68434185  0.26454093  0.23663124  1  1.544738  0  0.208078  0.57696  0  4.202105  0
C  C228  1  0.15074593  0.46919219  0.32053662  1  0.515689  0  0.069364  0.11646  0  3.943161  0
C  C229  1  0.72433431  0.25420898  0.28676406  1  -0.055632  0  -0.018993  -0.039823  0  3.974244  0
C  C230  1  0.77535388  0.20621523  0.28692249  1  0.032468  0  -0.075943  -0.073593  0  3.955916  0
C  C231  1  0.95827892  0.36581393  0.54629275  1  0.36997  0  0.1236  0.299404  0  3.995598  0
C  C232  1  0.98418046  0.38623456  0.49356960  1  0.002862  0  -0.08938  -0.229296  0  3.931536  0
C  C233  1  0.54875789  0.04209607  0.61232259  1  1.057744  0  0.255094  0.284793  0  3.971311  0
C  C234  1  0.82637975  0.26668385  0.60616094  1  1.396741  0  0.24893  0.495914  0  4.099298  0
C  C235  1  0.07772148  0.44659509  0.48067544  1  0.455024  0  0.042004  0.096955  0  3.976273  0
C  C236  1  0.72576717  0.18941376  0.60618587  1  0.015072  0  -0.01112  -0.127294  0  3.966601  0
C  C237  1  0.12169568  0.46881775  0.56715008  1  0.43348  0  0.043487  0.106926  0  3.942584  0
C  C238  1  0.03003821  0.40939366  0.58361685  1  0.031869  0  -0.088872  -0.219097  0  3.909473  0
C  C239  1  0.67082691  0.14784092  0.56182622  1  0.494531  0  0.06982  0.107967  0  3.925125  0
C  C240  1  0.41980225  0.68433834  0.56996769  1  1.564459  0  0.208046  0.576848  0  4.20239  0
C  C241  1  0.68155392  0.15074635  0.65387559  1  0.488753  0  0.069477  0.116379  0  3.943367  0
C  C242  1  0.47012517  0.72433253  0.62009970  1  0.071289  0  -0.018976  -0.039692  0  3.97411  0
C  C243  1  0.56914017  0.77535248  0.62025806  1  -0.099588  0  -0.075973  -0.073702  0  3.955847  0
C  C244  1  0.40753388  0.04172459  0.87962508  1  0.39755  0  0.123604  0.299287  0  3.995632  0
C  C245  1  0.40205543  0.01582234  0.82690197  1  0.066467  0  -0.089381  -0.229173  0  3.931402  0
C  C246  1  0.49333599  0.45124153  0.94565704  1  1.088465  0  0.255042  0.284964  0  3.971142  0
C  C247  1  0.44030582  0.17362278  0.93949347  1  1.391081  0  0.248995  0.495895  0  4.099383  0
C  C248  1  0.36887518  0.92228092  0.81400780  1  0.389815  0  0.042042  0.096932  0  3.976471  0
C  C249  1  0.46364668  0.27423463  0.93951903  1  -0.032358  0  -0.011122  -0.127289  0  3.966803  0
C  C250  1  0.34712429  0.87830484  0.90048250  1  0.502422  0  0.043521  0.107004  0  3.942588  0
C  C251  1  0.37935625  0.96996315  0.91694991  1  -0.030787  0  -0.088923  -0.219229  0  3.909322  0
C  C252  1  0.47701035  0.32917369  0.89516007  1  0.538885  0  0.069926  0.108141  0  3.925137  0
C  C253  1  0.26453571  0.58019856  0.90330093  1  1.543961  0  0.207971  0.576719  0  4.202634  0
C  C254  1  0.46919025  0.31844332  0.98720791  1  0.529724  0  0.069467  0.116443  0  3.943449  0
C  C255  1  0.25420531  0.52987459  0.95343146  1  0.101585  0  -0.019019  -0.039749  0  3.974177  0
C  C256  1  0.20621338  0.43086227  0.95358995  1  -0.121712  0  -0.075933  -0.07367  0  3.95589  0
C  C257  1  0.63418536  0.59246185  0.21295648  1  0.389169  0  0.123505  0.299062  0  3.99576  0
C  C258  1  0.61376471  0.59794173  0.16023336  1  0.001591  0  -0.089334  -0.229007  0  3.931292  0
C  C259  1  0.95790143  0.50665982  0.27898439  1  1.086086  0  0.254984  0.28463  0  3.97147  0
C  C260  1  0.73331882  0.55969282  0.27282534  1  1.389063  0  0.248938  0.495966  0  4.099206  0
C  C261  1  0.55340380  0.63112379  0.14733817  1  0.455863  0  0.042027  0.096864  0  3.976376  0
C  C262  1  0.81058745  0.53635292  0.27284707  1  -0.007247  0  -0.011086  -0.127359  0  3.966815  0
C  C263  1  0.53117970  0.65287561  0.23381283  1  0.509365  0  0.043411  0.106828  0  3.942913  0
C  C264  1  0.59060388  0.62064004  0.25027992  1  -0.000211  0  -0.088856  -0.219057  0  3.909481  0
C  C265  1  0.85216088  0.52298924  0.22848893  1  0.50883  0  0.069859  0.108077  0  3.925176  0
C  C266  1  0.31565826  0.73546349  0.23663069  1  1.544365  0  0.208137  0.57701  0  4.202014  0
C  C267  1  0.84925239  0.53080471  0.32053675  1  0.516434  0  0.069331  0.116392  0  3.943318  0
C  C268  1  0.27566588  0.74579123  0.28676313  1  0.068004  0  -0.01899  -0.039764  0  3.974347  0
C  C269  1  0.22464850  0.79378646  0.28692154  1  -0.08919  0  -0.075955  -0.073705  0  3.955927  0
C  C270  1  0.28961935  0.57924189  0.99999971  1  -0.095276  0  -0.07473  -0.095661  0  3.921609  0
C  C271  1  0.19075415  0.38150308  0.99999909  1  -0.094343  0  -0.091404  -0.089602  0  4.030874  0
C  C272  1  0.42076000  0.71038061  0.66666802  1  -0.094406  0  -0.074732  -0.095602  0  3.92179  0
C  C273  1  0.61849966  0.80925099  0.66666790  1  -0.094725  0  -0.091329  -0.089479  0  4.030791  0
C  C274  1  0.28961969  0.71037987  0.33333144  1  -0.052425  0  -0.07471  -0.09553  0  3.921738  0
C  C275  1  0.19075233  0.80924976  0.33333064  1  -0.085104  0  -0.091373  -0.089476  0  4.030989  0
C  C276  1  0.71038443  0.42076055  0.00000006  1  -0.093803  0  -0.074713  -0.095599  0  3.921619  0
C  C277  1  0.80925104  0.61849795  0.99999953  1  -0.063361  0  -0.091293  -0.089407  0  4.031036  0
C  C278  1  0.57923882  0.28962000  0.66666783  1  -0.041381  0  -0.074729  -0.095575  0  3.921757  0
C  C279  1  0.38150118  0.19074882  0.66666757  1  -0.058798  0  -0.091308  -0.089394  0  4.030938  0
C  C280  1  0.71038032  0.28962011  0.33333234  1  -0.051528  0  -0.074713  -0.095522  0  3.921719  0
C  C281  1  0.80925012  0.19075267  0.33333120  1  -0.088525  0  -0.091419  -0.089576  0  4.031079  0
N  N282  1  0.51227167  0.85338583  0.14994893  1  -1.267863  0  -0.344845  -0.261769  0  3.596348  0
N  N283  1  0.69625688  0.13571697  0.10858994  1  -1.255302  0  -0.38958  -0.379414  0  3.535091  0
N  N284  1  0.92454280  0.41686489  0.10184118  1  -1.137137  0  -0.294107  -0.27349  0  3.276429  0
N  N285  1  0.92268404  0.40612304  0.00892359  1  -1.165374  0  -0.31036  -0.319595  0  3.256094  0
N  N286  1  0.14661226  0.65888655  0.81661930  1  -1.267164  0  -0.344674  -0.261447  0  3.59673  0
N  N287  1  0.86428599  0.56053958  0.77525783  1  -1.304698  0  -0.389547  -0.37938  0  3.535026  0
N  N288  1  0.58314180  0.50768396  0.76851642  1  -1.155643  0  -0.294117  -0.273348  0  3.276761  0
N  N289  1  0.59387651  0.51656091  0.67559803  1  -1.157949  0  -0.310317  -0.319565  0  3.25613  0
N  N290  1  0.34111483  0.48772785  0.48328233  1  -1.265259  0  -0.344815  -0.261645  0  3.596476  0
N  N291  1  0.43946313  0.30374473  0.44192344  1  -1.254589  0  -0.389534  -0.379361  0  3.535012  0
N  N292  1  0.49232308  0.07545694  0.43517426  1  -1.137922  0  -0.294117  -0.273411  0  3.276319  0
N  N293  1  0.48344174  0.07731871  0.34225705  1  -1.155888  0  -0.310296  -0.319436  0  3.256042  0
N  N294  1  0.48772165  0.14660905  0.14995014  1  -1.269391  0  -0.344879  -0.261713  0  3.596467  0
N  N295  1  0.30374686  0.86428130  0.10858963  1  -1.254913  0  -0.389515  -0.379295  0  3.53523  0
N  N296  1  0.07545937  0.58313746  0.10184019  1  -1.137717  0  -0.294111  -0.273445  0  3.276465  0
N  N297  1  0.07731834  0.59387750  0.00892336  1  -1.165279  0  -0.310349  -0.31954  0  3.256162  0
N  N298  1  0.85338946  0.34111470  0.81662004  1  -1.268068  0  -0.344722  -0.261476  0  3.596687  0
N  N299  1  0.13571510  0.43946390  0.77525813  1  -1.305232  0  -0.389546  -0.379296  0  3.534991  0
N  N300  1  0.41686240  0.49231770  0.76851648  1  -1.15503  0  -0.294066  -0.273289  0  3.276583  0
N  N301  1  0.40613041  0.48344497  0.67559733  1  -1.157424  0  -0.310266  -0.319454  0  3.25552  0
N  N302  1  0.65888981  0.51227593  0.48328377  1  -1.263093  0  -0.344739  -0.261664  0  3.596328  0
N  N303  1  0.56053435  0.69625192  0.44192433  1  -1.254212  0  -0.389515  -0.379297  0  3.534952  0
N  N304  1  0.50767311  0.92453984  0.43517530  1  -1.13823  0  -0.294188  -0.27359  0  3.276463  0
N  N305  1  0.51655675  0.92267905  0.34225886  1  -1.155849  0  -0.310335  -0.319621  0  3.256128  0
N  N306  1  0.85338656  0.51227390  0.51671723  1  -1.268776  0  -0.344847  -0.261766  0  3.596403  0
N  N307  1  0.13571600  0.69625019  0.55807787  1  -1.253413  0  -0.389525  -0.379353  0  3.535034  0
N  N308  1  0.41686580  0.92454024  0.56482500  1  -1.137766  0  -0.29419  -0.27355  0  3.276345  0
N  N309  1  0.40612263  0.92268441  0.65774261  1  -1.165204  0  -0.310331  -0.319506  0  3.255999  0
N  N310  1  0.65888547  0.14661276  0.85005025  1  -1.268041  0  -0.344755  -0.261561  0  3.596406  0
N  N311  1  0.56053349  0.86428448  0.89141076  1  -1.304725  0  -0.389507  -0.379319  0  3.534989  0
N  N312  1  0.50767666  0.58313758  0.89815947  1  -1.154687  0  -0.294111  -0.273478  0  3.27641  0
N  N313  1  0.51655921  0.59387930  0.99107629  1  -1.158199  0  -0.310329  -0.319623  0  3.256157  0
N  N314  1  0.48772622  0.34111525  0.18337967  1  -1.266005  0  -0.344757  -0.261508  0  3.596673  0
N  N315  1  0.30374918  0.43946466  0.22474213  1  -1.254147  0  -0.389554  -0.379311  0  3.535004  0
N  N316  1  0.07545253  0.49231287  0.23148487  1  -1.138179  0  -0.294086  -0.273405  0  3.276614  0
N  N317  1  0.07731427  0.48343927  0.32440286  1  -1.1557  0  -0.31027  -0.319531  0  3.255899  0
N  N318  1  0.14661367  0.48772544  0.51671747  1  -1.269916  0  -0.344808  -0.26173  0  3.59644  0
N  N319  1  0.86428329  0.30374605  0.55807749  1  -1.255379  0  -0.389519  -0.379407  0  3.535036  0
N  N320  1  0.58313572  0.07546104  0.56482507  1  -1.137137  0  -0.294136  -0.273427  0  3.276507  0
N  N321  1  0.59387623  0.07731625  0.65774228  1  -1.165174  0  -0.310285  -0.319431  0  3.256051  0
N  N322  1  0.34111435  0.85339009  0.85004993  1  -1.268139  0  -0.344803  -0.261576  0  3.596608  0
N  N323  1  0.43946266  0.13571679  0.89141007  1  -1.305306  0  -0.389503  -0.379227  0  3.53518  0
N  N324  1  0.49232191  0.41686610  0.89815880  1  -1.154597  0  -0.294114  -0.273486  0  3.276413  0
N  N325  1  0.48343679  0.40612243  0.99107602  1  -1.158021  0  -0.310321  -0.319656  0  3.255911  0
N  N326  1  0.51227221  0.65888400  0.18338025  1  -1.268477  0  -0.344714  -0.261464  0  3.59673  0
N  N327  1  0.69625303  0.56053410  0.22474116  1  -1.25349  0  -0.389537  -0.379228  0  3.534956  0
N  N328  1  0.92454345  0.50768106  0.23148537  1  -1.13737  0  -0.294039  -0.273257  0  3.276605  0
N  N329  1  0.92268150  0.51655648  0.32440257  1  -1.155889  0  -0.310232  -0.319411  0  3.255966  0
O  O330  1  0.37393069  0.67007996  0.09502357  1  -1.175456  0  -0.326753  -0.546957  0  2.306651  0
O  O331  1  0.29338826  0.53416132  0.13854854  1  -1.207333  0  -0.317603  -0.578499  0  2.273474  0
O  O332  1  0.70831294  0.12820193  0.01952382  1  -1.126697  0  -0.273596  -0.460334  0  2.145945  0
O  O333  1  0.32992166  0.70384700  0.76169214  1  -1.176  0  -0.326708  -0.547009  0  2.306707  0
O  O334  1  0.46583846  0.75922544  0.80521770  1  -1.206015  0  -0.317652  -0.578572  0  2.273386  0
O  O335  1  0.87179460  0.58011618  0.68619091  1  -1.125517  0  -0.27362  -0.460355  0  2.146088  0
O  O336  1  0.29615045  0.62607243  0.42835597  1  -1.160547  0  -0.326705  -0.546968  0  2.306707  0
O  O337  1  0.24077475  0.70661337  0.47188080  1  -1.206845  0  -0.317654  -0.578557  0  2.273541  0
O  O338  1  0.41989020  0.29168774  0.35285733  1  -1.122649  0  -0.273564  -0.460291  0  2.146028  0
O  O339  1  0.62606906  0.32991998  0.09502524  1  -1.175476  0  -0.326736  -0.547011  0  2.306761  0
O  O340  1  0.70660624  0.46583616  0.13855000  1  -1.207421  0  -0.317621  -0.578552  0  2.273529  0
O  O341  1  0.29168804  0.87179013  0.01952273  1  -1.127054  0  -0.273571  -0.46034  0  2.145928  0
O  O342  1  0.67007967  0.29615392  0.76169344  1  -1.175782  0  -0.326711  -0.547067  0  2.306741  0
O  O343  1  0.53416286  0.24077754  0.80521877  1  -1.207029  0  -0.317667  -0.578583  0  2.27336  0
O  O344  1  0.12820708  0.41989362  0.68619202  1  -1.12441  0  -0.273584  -0.460405  0  2.145985  0
O  O345  1  0.70385127  0.37392988  0.42835909  1  -1.160411  0  -0.326757  -0.547015  0  2.306708  0
O  O346  1  0.75922994  0.29339047  0.47188282  1  -1.206334  0  -0.31761  -0.578522  0  2.273436  0
O  O347  1  0.58010806  0.70831260  0.35285858  1  -1.122086  0  -0.273552  -0.460338  0  2.14598  0
O  O348  1  0.67007720  0.37392861  0.57164289  1  -1.175314  0  -0.326768  -0.547032  0  2.306628  0
O  O349  1  0.53415504  0.29338402  0.52811890  1  -1.207421  0  -0.31766  -0.57856  0  2.273366  0
O  O350  1  0.12820334  0.70831286  0.64714438  1  -1.127139  0  -0.273675  -0.460456  0  2.145909  0
O  O351  1  0.70384929  0.32992207  0.90497642  1  -1.176006  0  -0.32675  -0.547051  0  2.306726  0
O  O352  1  0.75923260  0.46583814  0.86145146  1  -1.207087  0  -0.317624  -0.578509  0  2.273619  0
O  O353  1  0.58010345  0.87179281  0.98047804  1  -1.123616  0  -0.27359  -0.460415  0  2.145899  0
O  O354  1  0.62607335  0.29615132  0.23830789  1  -1.160538  0  -0.326717  -0.547044  0  2.306637  0
O  O355  1  0.70661906  0.24077970  0.19478264  1  -1.20697  0  -0.317653  -0.578597  0  2.273318  0
O  O356  1  0.29168887  0.41989546  0.31380866  1  -1.122469  0  -0.273559  -0.460367  0  2.14579  0
O  O357  1  0.32992044  0.62607160  0.57164130  1  -1.175464  0  -0.326688  -0.547036  0  2.306822  0
O  O358  1  0.46583913  0.70660783  0.52811712  1  -1.207436  0  -0.317653  -0.578574  0  2.273493  0
O  O359  1  0.87179354  0.29168865  0.64714401  1  -1.126743  0  -0.273586  -0.460361  0  2.1459  0
O  O360  1  0.29614979  0.67007858  0.90497751  1  -1.176207  0  -0.326703  -0.546947  0  2.306748  0
O  O361  1  0.24076981  0.53416447  0.86145236  1  -1.2058  0  -0.317583  -0.578488  0  2.273649  0
O  O362  1  0.41988938  0.12820364  0.98047699  1  -1.125556  0  -0.273631  -0.460394  0  2.146026  0
O  O363  1  0.37392591  0.70384659  0.23830578  1  -1.160464  0  -0.326745  -0.547082  0  2.306554  0
O  O364  1  0.29338615  0.75922490  0.19478130  1  -1.207047  0  -0.317694  -0.578645  0  2.273408  0
O  O365  1  0.70831047  0.58009681  0.31380960  1  -1.12201  0  -0.273535  -0.460368  0  2.145854  0
