# generated using pymatgen
data_Eu2Cu3H30C24(NO4)6
_symmetry_space_group_name_H-M   'P 1'
_cell_length_a   13.35724286
_cell_length_b   13.35730615
_cell_length_c   14.54661439
_cell_angle_alpha   90.00098549
_cell_angle_beta   89.99887906
_cell_angle_gamma   120.00308820
_symmetry_Int_Tables_number   1
_chemical_formula_structural   Eu2Cu3H30C24(NO4)6
_chemical_formula_sum   'Eu4 Cu6 H60 C48 N12 O48'
_cell_volume   2247.57785724
_cell_formula_units_Z   2
loop_
 _symmetry_equiv_pos_site_id
 _symmetry_equiv_pos_as_xyz
  1  'x, y, z'
loop_
 _atom_site_type_symbol
 _atom_site_label
 _atom_site_symmetry_multiplicity
 _atom_site_fract_x
 _atom_site_fract_y
 _atom_site_fract_z
 _atom_site_occupancy
 _atom_site_pbe_bader_charge
 _atom_site_pbe_bader_spin_density
 _atom_site_pbe_cm5_charge
 _atom_site_pbe_ddec_charge
 _atom_site_pbe_ddec_spin_density
 _atom_site_pbe_ddec_sum_bond_order
 _atom_site_pbe_magmom
Eu  Eu0  1  0.66665908  0.33332927  0.16825091  1  2.211034  -0.000846  1.489929  2.104832  -0.001148  2.15648  -0.003
Eu  Eu1  1  0.33332713  0.66665615  0.33175162  1  2.211001  -0.000844  1.489728  2.104558  -0.001148  2.15633  -0.003
Eu  Eu2  1  0.66667192  0.33334361  0.66824835  1  2.211029  -0.000844  1.489707  2.104533  -0.001148  2.156385  -0.003
Eu  Eu3  1  0.33334116  0.66667080  0.83174906  1  2.211018  -0.000847  1.489935  2.10483  -0.001148  2.156458  -0.003
Cu  Cu4  1  0.50000026  0.50000041  0.00000014  1  1.055451  -0.579984  0.744307  0.768766  -0.75279  2.208735  -0.578
Cu  Cu5  1  0.50000021  0.00000025  0.00000032  1  1.05295  0.57965  0.744167  0.768835  0.775045  2.208104  0.578
Cu  Cu6  1  0.00000008  0.50000060  0.99999951  1  1.052695  -0.579929  0.744335  0.768813  -0.752811  2.208537  -0.578
Cu  Cu7  1  0.50000049  0.50000041  0.50000033  1  1.055373  0.579766  0.744245  0.768754  0.775129  2.208788  0.578
Cu  Cu8  1  0.99999953  0.50000034  0.49999997  1  1.053268  -0.579903  0.744274  0.768899  -0.752788  2.208388  -0.578
Cu  Cu9  1  0.50000044  0.00000025  0.49999914  1  1.05272  -0.579999  0.744544  0.769496  -0.752861  2.208283  -0.579
H  H10  1  0.32191895  0.35990066  0.91726905  1  0.492318  0.000174  0.290595  0.252447  -0.00044  1.015431  0.0
H  H11  1  0.64009248  0.96203133  0.91726612  1  0.496473  -0.000272  0.290576  0.252374  0.000379  1.015636  0.0
H  H12  1  0.03799212  0.67809072  0.91727067  1  0.494184  0.000238  0.290512  0.252353  -0.00034  1.015656  0.0
H  H13  1  0.35990410  0.32191522  0.58272940  1  0.492272  -0.000264  0.290536  0.252419  0.00038  1.015484  0.0
H  H14  1  0.03799119  0.35990538  0.41726247  1  0.496077  0.000259  0.290525  0.252348  -0.000341  1.015649  0.0
H  H15  1  0.32190436  0.96198674  0.41727222  1  0.493988  0.00016  0.290416  0.252291  -0.000442  1.015525  0.0
H  H16  1  0.67808129  0.64009941  0.08273092  1  0.492306  0.000173  0.290589  0.252439  -0.00044  1.015444  0.0
H  H17  1  0.35990733  0.03796918  0.08273453  1  0.496644  -0.000273  0.290585  0.252362  0.000379  1.01566  0.0
H  H18  1  0.96200694  0.32190904  0.08272999  1  0.494174  0.000238  0.290521  0.252349  -0.000341  1.015616  0.0
H  H19  1  0.64009645  0.67808604  0.41726988  1  0.492252  -0.000263  0.290538  0.252441  0.00038  1.015472  0.0
H  H20  1  0.96200862  0.64009513  0.58273819  1  0.496067  0.000258  0.290519  0.252356  -0.000341  1.015665  0.0
H  H21  1  0.67809631  0.03801290  0.58272775  1  0.494027  0.00016  0.29041  0.25229  -0.000442  1.015533  0.0
H  H22  1  0.30536981  0.16743852  0.97372618  1  0.065038  -0.005903  0.109907  0.105206  -0.003046  0.976521  -0.003
H  H23  1  0.83254573  0.13793790  0.97372328  1  0.061926  0.005902  0.109909  0.105178  0.003126  0.976669  0.003
H  H24  1  0.86207110  0.69462284  0.97372671  1  0.053074  -0.005959  0.109876  0.105178  -0.003048  0.976404  -0.003
H  H25  1  0.16743376  0.30535941  0.52627181  1  0.06543  0.005879  0.109909  0.105187  0.003125  0.976562  0.003
H  H26  1  0.86206544  0.16743873  0.47372099  1  0.062262  -0.005938  0.109897  0.105214  -0.003047  0.976454  -0.003
H  H27  1  0.30536091  0.13791897  0.47372507  1  0.053141  -0.00594  0.109863  0.105091  -0.003045  0.976359  -0.003
H  H28  1  0.69463000  0.83256199  0.02627379  1  0.065025  -0.005903  0.109919  0.105242  -0.003046  0.976515  -0.003
H  H29  1  0.16745333  0.86206186  0.02627669  1  0.061913  0.005902  0.109936  0.105226  0.003126  0.976722  0.003
H  H30  1  0.13792914  0.30537723  0.02627326  1  0.053073  -0.005959  0.109875  0.10517  -0.003048  0.976406  -0.003
H  H31  1  0.83256679  0.69464184  0.47372885  1  0.065426  0.005879  0.109914  0.105193  0.003125  0.976539  0.003
H  H32  1  0.13793448  0.83256016  0.52627829  1  0.061905  -0.005939  0.109892  0.105198  -0.003047  0.976498  -0.003
H  H33  1  0.69463901  0.86207993  0.52627421  1  0.05314  -0.00594  0.10986  0.105064  -0.003045  0.976384  -0.003
H  H34  1  0.28575083  0.25821936  0.05268320  1  0.080619  -0.000256  0.120217  0.122245  -4.2e-05  0.971425  0.0
H  H35  1  0.74177615  0.02753222  0.05267248  1  0.081694  -0.00018  0.120199  0.122235  -0.000234  0.971478  0.0
H  H36  1  0.97247367  0.71425413  0.05268407  1  0.079588  0.000181  0.12022  0.122262  0.000235  0.971337  0.0
H  H37  1  0.25821513  0.28574032  0.44731776  1  0.080356  -0.00018  0.120225  0.122286  -0.000234  0.97148  0.0
H  H38  1  0.97247489  0.25822482  0.55267655  1  0.081789  0.000181  0.120214  0.122263  0.000235  0.971338  0.0
H  H39  1  0.28574341  0.02751458  0.55268433  1  0.079619  -0.000258  0.120212  0.122209  -4.2e-05  0.971348  0.0
H  H40  1  0.71424898  0.74178115  0.94731677  1  0.080603  -0.000256  0.120212  0.122246  -4.2e-05  0.971433  0.0
H  H41  1  0.25822334  0.97246710  0.94732749  1  0.081695  -0.00018  0.120214  0.122249  -0.000234  0.971473  0.0
H  H42  1  0.02752657  0.28574594  0.94731521  1  0.079583  0.000181  0.12021  0.12225  0.000235  0.971333  0.0
H  H43  1  0.74178543  0.71426093  0.55268289  1  0.080375  -0.00018  0.120225  0.12228  -0.000234  0.971451  0.0
H  H44  1  0.02752503  0.74177408  0.44732274  1  0.081788  0.000181  0.120198  0.122234  0.000235  0.971331  0.0
H  H45  1  0.71425651  0.97248432  0.44731495  1  0.079619  -0.000258  0.120208  0.122205  -4.2e-05  0.971364  0.0
H  H46  1  0.39383472  0.31121314  0.79618899  1  0.096486  -0.001856  0.121714  0.128267  -0.000961  0.963894  -0.001
H  H47  1  0.68879523  0.08263254  0.79618798  1  0.087468  0.001876  0.12174  0.128297  0.001006  0.964178  0.001
H  H48  1  0.91738876  0.60617076  0.79619074  1  0.082212  -0.001946  0.121764  0.12831  -0.000996  0.963801  -0.001
H  H49  1  0.31121444  0.39383138  0.70380944  1  0.096115  0.001864  0.12174  0.12826  0.001005  0.963952  0.001
H  H50  1  0.91738015  0.31121438  0.29618341  1  0.087102  -0.001936  0.121744  0.128315  -0.000996  0.963861  -0.001
H  H51  1  0.39383137  0.08260315  0.29619250  1  0.082301  -0.001872  0.121647  0.128247  -0.00096  0.963783  -0.001
H  H52  1  0.60616508  0.68878736  0.20381098  1  0.096487  -0.001856  0.121715  0.128268  -0.000961  0.963892  -0.001
H  H53  1  0.31120458  0.91736797  0.20381268  1  0.087458  0.001876  0.121754  0.12831  0.001006  0.964139  0.001
H  H54  1  0.08261148  0.39382932  0.20380923  1  0.082185  -0.001946  0.121779  0.128354  -0.000996  0.963832  -0.001
H  H55  1  0.68878579  0.60616870  0.29619122  1  0.096115  0.001864  0.121749  0.128291  0.001004  0.963924  0.001
H  H56  1  0.08261965  0.68878613  0.70381656  1  0.087094  -0.001936  0.121731  0.128298  -0.000995  0.963875  -0.001
H  H57  1  0.60616886  0.91739692  0.70380679  1  0.082335  -0.001872  0.121668  0.128268  -0.00096  0.963842  -0.001
H  H58  1  0.46190173  0.25874774  0.86866600  1  0.128569  -0.000153  0.124695  0.134559  7.8e-05  0.995972  0.0
H  H59  1  0.74125861  0.20315812  0.86865412  1  0.132574  0.000146  0.124747  0.134594  -7.3e-05  0.996268  0.0
H  H60  1  0.79684856  0.53809588  0.86867000  1  0.122386  -0.000344  0.124703  0.134603  -0.000163  0.99594  0.0
H  H61  1  0.25874632  0.46189733  0.63133310  1  0.128465  0.000147  0.124703  0.134574  -7.3e-05  0.995979  0.0
H  H62  1  0.79684484  0.25873576  0.36866692  1  0.132622  -0.000338  0.124679  0.134534  -0.000164  0.996084  0.0
H  H63  1  0.46191294  0.20315377  0.36868324  1  0.122382  -0.000154  0.124635  0.134552  7.8e-05  0.995753  0.0
H  H64  1  0.53809808  0.74125276  0.13133397  1  0.128552  -0.000153  0.124693  0.134576  7.8e-05  0.99596  0.0
H  H65  1  0.25874045  0.79684164  0.13134585  1  0.132572  0.000146  0.124748  0.134595  -7.3e-05  0.996274  0.0
H  H66  1  0.20315168  0.46190419  0.13132928  1  0.122386  -0.000344  0.124718  0.134649  -0.000163  0.995869  0.0
H  H67  1  0.74125348  0.53810317  0.36866756  1  0.128469  0.000147  0.124702  0.134584  -7.3e-05  0.995978  0.0
H  H68  1  0.20315422  0.74126400  0.63133305  1  0.132627  -0.000338  0.124682  0.134539  -0.000164  0.996084  0.0
H  H69  1  0.53808741  0.79684469  0.63131604  1  0.122365  -0.000155  0.124628  0.134542  7.8e-05  0.995756  0.0
C  C70  1  0.44645567  0.26333522  0.06747356  1  1.601006  -0.002473  0.207694  0.623614  -0.001562  4.172997  -0.002
C  C71  1  0.73665815  0.18311379  0.06747582  1  1.589835  0.002432  0.207713  0.623605  0.001606  4.172445  0.002
C  C72  1  0.81688019  0.55354375  0.06748008  1  1.586052  -0.002249  0.207645  0.623696  -0.001372  4.172907  -0.002
C  C73  1  0.26333945  0.44644879  0.43252860  1  1.600711  0.002424  0.207674  0.623563  0.001601  4.172946  0.002
C  C74  1  0.81688693  0.26333863  0.56747249  1  1.590079  -0.002253  0.207676  0.623593  -0.001372  4.172859  -0.002
C  C75  1  0.44645174  0.18312056  0.56747725  1  1.585773  -0.002463  0.207805  0.623798  -0.001558  4.173253  -0.002
C  C76  1  0.55354382  0.73666410  0.93252641  1  1.600982  -0.002473  0.20765  0.623628  -0.001562  4.173068  -0.002
C  C77  1  0.26334209  0.81688629  0.93252483  1  1.589841  0.002432  0.20758  0.62326  0.001606  4.172805  0.002
C  C78  1  0.18311886  0.44645600  0.93251989  1  1.586045  -0.002249  0.207694  0.623704  -0.001372  4.172858  -0.002
C  C79  1  0.73666078  0.55355129  0.56747137  1  1.600713  0.002424  0.207727  0.623663  0.001601  4.172932  0.002
C  C80  1  0.18311299  0.73666027  0.43252748  1  1.590088  -0.002253  0.207657  0.623553  -0.001372  4.173087  -0.002
C  C81  1  0.55354775  0.81687877  0.43252204  1  1.585786  -0.002463  0.20779  0.623784  -0.001558  4.173256  -0.002
C  C82  1  0.34839632  0.25327290  0.00669390  1  0.25788  -0.000494  -0.067744  -0.179055  -0.00127  3.896822  0.002
C  C83  1  0.74671136  0.09509854  0.00667051  1  0.25643  0.000161  -0.067734  -0.17891  0.001119  3.897011  -0.002
C  C84  1  0.90488175  0.65160392  0.00669616  1  0.269403  -0.000159  -0.067693  -0.179041  -0.001012  3.896485  0.002
C  C85  1  0.25326907  0.34838603  0.49330357  1  0.25779  0.00019  -0.06776  -0.179062  0.001119  3.896897  -0.002
C  C86  1  0.90488072  0.25327668  0.50668978  1  0.25559  -0.000168  -0.067699  -0.178954  -0.001011  3.896663  0.002
C  C87  1  0.34840786  0.09513588  0.50671553  1  0.269153  -0.000459  -0.067536  -0.178671  -0.00127  3.896121  0.002
C  C88  1  0.65160467  0.74672792  0.99330676  1  0.2579  -0.000494  -0.067743  -0.179104  -0.00127  3.896845  0.002
C  C89  1  0.25328845  0.90490197  0.99333014  1  0.256434  0.000161  -0.067733  -0.178836  0.001119  3.897037  -0.002
C  C90  1  0.09511849  0.34839616  0.99330381  1  0.269404  -0.000159  -0.067688  -0.179011  -0.001012  3.896435  0.002
C  C91  1  0.74673073  0.65161447  0.50669571  1  0.25778  0.00019  -0.067771  -0.179054  0.001119  3.896858  -0.002
C  C92  1  0.09511909  0.74672383  0.49331019  1  0.255951  -0.000167  -0.067676  -0.178838  -0.001011  3.896598  0.002
C  C93  1  0.65159324  0.90486333  0.49328375  1  0.269176  -0.000459  -0.067545  -0.178646  -0.00127  3.896143  0.002
C  C94  1  0.44728522  0.33199383  0.85846777  1  0.232993  -0.00129  -0.065563  -0.204293  -0.001612  3.860884  0.001
C  C95  1  0.66803686  0.11529168  0.85847027  1  0.243909  0.001191  -0.065699  -0.204371  0.00169  3.861751  -0.001
C  C96  1  0.88471693  0.55271914  0.85847177  1  0.240038  -0.001352  -0.065729  -0.204578  -0.001678  3.861044  0.001
C  C97  1  0.33199332  0.44728069  0.64152920  1  0.232915  0.001212  -0.065671  -0.20443  0.00169  3.860927  -0.001
C  C98  1  0.88471254  0.33198938  0.35846640  1  0.24324  -0.001358  -0.065633  -0.204328  -0.001678  3.860915  0.001
C  C99  1  0.44730979  0.11528250  0.35847068  1  0.240554  -0.001267  -0.065562  -0.204493  -0.001612  3.860121  0.001
C  C100  1  0.55271502  0.66800625  0.14153220  1  0.232997  -0.00129  -0.065561  -0.204293  -0.001612  3.860881  0.001
C  C101  1  0.33196337  0.88470840  0.14152970  1  0.243893  0.001192  -0.065724  -0.204381  0.00169  3.861777  -0.001
C  C102  1  0.11528256  0.44728018  0.14152820  1  0.240073  -0.001352  -0.065747  -0.204672  -0.001678  3.861042  0.001
C  C103  1  0.66800692  0.55271938  0.35847008  1  0.232914  0.001212  -0.065691  -0.204488  0.001691  3.860927  -0.001
C  C104  1  0.11528770  0.66801070  0.64153426  1  0.243245  -0.001358  -0.065638  -0.20432  -0.001678  3.860899  0.001
C  C105  1  0.55269119  0.88471832  0.64152860  1  0.240539  -0.001267  -0.065571  -0.204498  -0.001612  3.860207  0.001
C  C106  1  0.56418797  0.43838068  0.83939233  1  1.587079  -0.001056  0.233383  0.663712  -0.001947  4.097883  -0.001
C  C107  1  0.56164698  0.12581122  0.83938989  1  1.59344  0.000957  0.23352  0.663932  0.002002  4.097138  0.001
C  C108  1  0.87419717  0.43581979  0.83939228  1  1.593989  -0.000982  0.233338  0.663734  -0.001862  4.098002  -0.001
C  C109  1  0.43837501  0.56419140  0.66061058  1  1.587162  0.000944  0.233393  0.663811  0.002002  4.097889  0.001
C  C110  1  0.87418208  0.43836372  0.33939004  1  1.594042  -0.000984  0.233393  0.663832  -0.001862  4.097751  -0.001
C  C111  1  0.56420610  0.12581090  0.33938968  1  1.593798  -0.001064  0.233469  0.664127  -0.001947  4.098325  -0.001
C  C112  1  0.43581227  0.56161939  0.16060764  1  1.587076  -0.001056  0.233367  0.663654  -0.001948  4.098027  -0.001
C  C113  1  0.43835358  0.87419004  0.16061145  1  1.593473  0.000957  0.233468  0.663816  0.002002  4.097367  0.001
C  C114  1  0.12580263  0.56418072  0.16060769  1  1.594048  -0.000983  0.233329  0.663683  -0.001862  4.098064  -0.001
C  C115  1  0.56162523  0.43580867  0.33938870  1  1.587168  0.000944  0.2334  0.663822  0.002002  4.09786  0.001
C  C116  1  0.12581666  0.56163486  0.66061062  1  1.59403  -0.000984  0.233448  0.663883  -0.001862  4.097614  -0.001
C  C117  1  0.43579414  0.87418917  0.66061029  1  1.5938  -0.001064  0.233497  0.664149  -0.001948  4.098423  -0.001
N  N118  1  0.38865624  0.34690471  0.93888506  1  -1.083769  -0.096027  -0.496114  -0.278596  -0.062918  3.554676  -0.079
N  N119  1  0.65310935  0.04175847  0.93886654  1  -1.09124  0.095912  -0.496038  -0.278573  0.064676  3.556016  0.079
N  N120  1  0.95825664  0.61134866  0.93888753  1  -1.073058  -0.095925  -0.495953  -0.278373  -0.06282  3.554844  -0.079
N  N121  1  0.34690094  0.38864859  0.56111264  1  -1.083546  0.095888  -0.495995  -0.278508  0.064687  3.554768  0.079
N  N122  1  0.95825421  0.34690259  0.43887770  1  -1.090157  -0.095959  -0.496048  -0.278705  -0.062819  3.555022  -0.079
N  N123  1  0.38866300  0.04173284  0.43890515  1  -1.0725  -0.096038  -0.496112  -0.27883  -0.062921  3.553697  -0.079
N  N124  1  0.61134400  0.65309536  0.06111491  1  -1.083766  -0.096025  -0.496123  -0.278602  -0.062917  3.554707  -0.079
N  N125  1  0.34689089  0.95824161  0.06113343  1  -1.091418  0.095909  -0.496047  -0.2786  0.064674  3.556095  0.079
N  N126  1  0.04174285  0.38865067  0.06111244  1  -1.073045  -0.095926  -0.495982  -0.278392  -0.06282  3.554726  -0.079
N  N127  1  0.65309886  0.61135192  0.43888733  1  -1.083418  0.095881  -0.495984  -0.278558  0.064683  3.554791  0.079
N  N128  1  0.04174485  0.65309717  0.56112227  1  -1.090142  -0.095958  -0.49604  -0.278784  -0.062818  3.555078  -0.079
N  N129  1  0.61133810  0.95826637  0.56109482  1  -1.07249  -0.096039  -0.496111  -0.278852  -0.062921  3.553695  -0.079
O  O130  1  0.54513404  0.35524360  0.05944748  1  -1.195307  0.001049  -0.396838  -0.67129  0.00084  2.336669  0.0
O  O131  1  0.64475112  0.18988226  0.05946109  1  -1.179026  -0.001144  -0.396865  -0.671326  -0.000834  2.336825  0.0
O  O132  1  0.81010732  0.45486850  0.05945551  1  -1.177008  0.001105  -0.396902  -0.671372  0.000864  2.336692  0.0
O  O133  1  0.35524635  0.54512853  0.44055241  1  -1.195202  -0.001148  -0.396815  -0.671238  -0.000835  2.336674  0.0
O  O134  1  0.81011590  0.35524283  0.55945010  1  -1.178876  0.001103  -0.396858  -0.671289  0.000864  2.336648  0.0
O  O135  1  0.54512825  0.18989609  0.55944568  1  -1.176911  0.001048  -0.397048  -0.671559  0.000841  2.336683  0.0
O  O136  1  0.45486513  0.64475454  0.94055249  1  -1.195277  0.001048  -0.396827  -0.67132  0.00084  2.336747  0.0
O  O137  1  0.35525062  0.81011931  0.94053957  1  -1.179039  -0.001144  -0.396772  -0.671145  -0.000834  2.336858  0.0
O  O138  1  0.18989367  0.54513233  0.94054446  1  -1.177019  0.001105  -0.396936  -0.671383  0.000864  2.336686  0.0
O  O139  1  0.64475389  0.45487154  0.55944687  1  -1.195191  -0.001147  -0.396819  -0.671265  -0.000835  2.336665  0.0
O  O140  1  0.18988359  0.64475649  0.44054987  1  -1.178902  0.001103  -0.396814  -0.671257  0.000864  2.336769  0.0
O  O141  1  0.45487199  0.81010399  0.44055429  1  -1.176911  0.001048  -0.397044  -0.671554  0.00084  2.33669  0.0
O  O142  1  0.42699734  0.18345293  0.12357619  1  -1.197334  -0.001097  -0.324696  -0.596923  -0.000775  2.169661  -0.001
O  O143  1  0.81654194  0.24355554  0.12358280  1  -1.199438  0.000407  -0.324646  -0.59695  0.000323  2.169739  0.0
O  O144  1  0.75645359  0.57301047  0.12357630  1  -1.196045  -0.0006  -0.324571  -0.596913  -0.000153  2.169701  0.0
O  O145  1  0.18346250  0.42700129  0.37642332  1  -1.197138  0.000407  -0.324661  -0.59682  0.000322  2.169772  0.0
O  O146  1  0.75646052  0.18344988  0.62357274  1  -1.199779  -0.000604  -0.324522  -0.596754  -0.000153  2.169769  0.0
O  O147  1  0.42697763  0.24353705  0.62356861  1  -1.196102  -0.001094  -0.324618  -0.596859  -0.000775  2.169777  -0.001
O  O148  1  0.57300215  0.81654640  0.87642377  1  -1.197311  -0.001098  -0.324673  -0.596922  -0.000776  2.169677  -0.001
O  O149  1  0.18345873  0.75644410  0.87641786  1  -1.199405  0.000407  -0.324632  -0.596859  0.000323  2.169867  0.0
O  O150  1  0.24354472  0.42698854  0.87642367  1  -1.196033  -0.0006  -0.324589  -0.596917  -0.000153  2.169671  0.0
O  O151  1  0.81653731  0.57299921  0.62357665  1  -1.197137  0.000407  -0.324703  -0.596878  0.000322  2.169853  0.0
O  O152  1  0.24353897  0.81654945  0.37642723  1  -1.199725  -0.000604  -0.324553  -0.596779  -0.000153  2.169892  0.0
O  O153  1  0.57302186  0.75646228  0.37643067  1  -1.19613  -0.001094  -0.324618  -0.596876  -0.000774  2.169798  -0.001
O  O154  1  0.60206335  0.52434736  0.89430235  1  -1.123979  -0.085745  -0.316284  -0.51462  -0.055826  2.280227  -0.078
O  O155  1  0.47567325  0.07772857  0.89430478  1  -1.130117  0.085547  -0.316494  -0.514868  0.057451  2.279659  0.078
O  O156  1  0.92227431  0.39794009  0.89430742  1  -1.126503  -0.085561  -0.316286  -0.514618  -0.055757  2.280151  -0.078
O  O157  1  0.52434331  0.60206888  0.60569149  1  -1.123995  0.085539  -0.316314  -0.514742  0.057446  2.280045  0.078
O  O158  1  0.92227335  0.52433268  0.39430959  1  -1.12999  -0.08557  -0.316357  -0.514727  -0.055764  2.279663  -0.078
O  O159  1  0.60206989  0.07771876  0.39430070  1  -1.126745  -0.085739  -0.316309  -0.514843  -0.055821  2.28011  -0.078
O  O160  1  0.39793850  0.47565260  0.10569762  1  -1.123985  -0.085745  -0.316284  -0.514592  -0.055825  2.280271  -0.078
O  O161  1  0.52432806  0.92227343  0.10569725  1  -1.130111  0.085545  -0.316466  -0.514817  0.057449  2.279795  0.078
O  O162  1  0.07772668  0.60206074  0.10569186  1  -1.126559  -0.085555  -0.316277  -0.51459  -0.055753  2.280272  -0.078
O  O163  1  0.47565574  0.39793088  0.39430780  1  -1.123976  0.085539  -0.316303  -0.51472  0.057445  2.279991  0.078
O  O164  1  0.07772496  0.47566633  0.60569106  1  -1.129983  -0.085571  -0.316388  -0.514755  -0.055765  2.27966  -0.078
O  O165  1  0.39793152  0.92228163  0.60569789  1  -1.126752  -0.085741  -0.316345  -0.514866  -0.055822  2.280106  -0.078
O  O166  1  0.62079959  0.43745113  0.77023483  1  -1.207305  -0.013378  -0.40975  -0.671222  -0.008635  2.319406  -0.011
O  O167  1  0.56252852  0.18332596  0.77023473  1  -1.207325  0.012556  -0.409609  -0.671264  0.008369  2.319411  0.01
O  O168  1  0.81666919  0.37921603  0.77022711  1  -1.210699  -0.012456  -0.409671  -0.671207  -0.007966  2.319579  -0.01
O  O169  1  0.43744760  0.62079549  0.72976252  1  -1.20734  0.012534  -0.409694  -0.671165  0.008352  2.319728  0.01
O  O170  1  0.81665458  0.43743934  0.27023906  1  -1.207477  -0.012455  -0.409658  -0.671245  -0.007967  2.319775  -0.01
O  O171  1  0.62077635  0.18335775  0.27022851  1  -1.210912  -0.013358  -0.409823  -0.671436  -0.008621  2.320058  -0.011
O  O172  1  0.37920108  0.56254852  0.22976514  1  -1.207304  -0.013377  -0.409737  -0.671213  -0.008634  2.319508  -0.011
O  O173  1  0.43747204  0.81667530  0.22976662  1  -1.207326  0.012555  -0.409572  -0.671207  0.008369  2.319461  0.01
O  O174  1  0.18332955  0.62078254  0.22977354  1  -1.21065  -0.012456  -0.409675  -0.671168  -0.007965  2.31955  -0.01
O  O175  1  0.56255189  0.37920383  0.27023745  1  -1.207353  0.012533  -0.409712  -0.671174  0.008352  2.319727  0.01
O  O176  1  0.18334577  0.56255912  0.72976091  1  -1.20748  -0.012456  -0.409686  -0.671252  -0.007968  2.319689  -0.01
O  O177  1  0.37922464  0.81664307  0.72977077  1  -1.210894  -0.013359  -0.409819  -0.671443  -0.008622  2.320146  -0.011
