# generated using pymatgen
data_ZnH16C22(NO)4
_symmetry_space_group_name_H-M   'P 1'
_cell_length_a   9.75033334
_cell_length_b   11.00688575
_cell_length_c   14.86376569
_cell_angle_alpha   90.26902855
_cell_angle_beta   103.52778322
_cell_angle_gamma   90.16896297
_symmetry_Int_Tables_number   1
_chemical_formula_structural   ZnH16C22(NO)4
_chemical_formula_sum   'Zn2 H32 C44 N8 O8'
_cell_volume   1550.90474526
_cell_formula_units_Z   2
loop_
 _symmetry_equiv_pos_site_id
 _symmetry_equiv_pos_as_xyz
  1  'x, y, z'
loop_
 _atom_site_type_symbol
 _atom_site_label
 _atom_site_symmetry_multiplicity
 _atom_site_fract_x
 _atom_site_fract_y
 _atom_site_fract_z
 _atom_site_occupancy
 _atom_site_pbe_bader_charge
 _atom_site_pbe_bader_spin_density
 _atom_site_pbe_cm5_charge
 _atom_site_pbe_ddec_charge
 _atom_site_pbe_ddec_spin_density
 _atom_site_pbe_ddec_sum_bond_order
 _atom_site_pbe_magmom
Zn  Zn0  1  0.85372252  0.50125796  0.50985189  1  1.298688  0  0.684553  0.853983  0  2.359675  0
Zn  Zn1  1  0.14586900  0.49962888  0.49041896  1  1.297002  0  0.683714  0.854361  0  2.353992  0
H  H2  1  0.22715000  0.58265665  0.11736982  1  0.061941  0  0.102839  0.105369  0  1.002355  0
H  H3  1  0.77138230  0.40859780  0.88376293  1  0.046273  0  0.102718  0.105419  0  1.003811  0
H  H4  1  0.67797585  0.52342354  0.22963278  1  0.112043  0  0.103602  0.101903  0  1.066707  0
H  H5  1  0.32229061  0.47632286  0.77040740  1  0.108789  0  0.10298  0.101131  0  1.066011  0
H  H6  1  0.07846157  0.41488760  0.18624986  1  0.081782  0  0.099974  0.100675  0  1.014692  0
H  H7  1  0.92067421  0.57960906  0.81480957  1  0.110234  0  0.099645  0.1  0  1.015788  0
H  H8  1  0.02644355  0.60576304  0.98378111  1  0.054186  0  0.102567  0.105022  0  1.006973  0
H  H9  1  0.97207017  0.38560562  0.01760833  1  0.069777  0  0.101285  0.102939  0  1.006022  0
H  H10  1  0.47563579  0.53485732  0.18191374  1  0.039003  0  0.097868  0.09562  0  1.051406  0
H  H11  1  0.52349516  0.45813453  0.81900054  1  0.051173  0  0.098183  0.095996  0  1.050338  0
H  H12  1  0.34193363  0.93409555  0.58912560  1  0.432633  0  0.287942  0.28002  0  0.996773  0
H  H13  1  0.26442464  0.79762676  0.54880320  1  0.468735  0  0.284396  0.283625  0  1.026797  0
H  H14  1  0.65605017  0.06668528  0.41368945  1  0.428958  0  0.286755  0.278451  0  0.999783  0
H  H15  1  0.73451944  0.20272863  0.45408085  1  0.488113  0  0.284577  0.283048  0  1.026787  0
H  H16  1  0.36335058  0.11228724  0.48051277  1  0.095471  0  0.095829  0.096013  0  1.011096  0
H  H17  1  0.58570235  0.20733205  0.57032856  1  0.066082  0  0.097049  0.096688  0  1.012524  0
H  H18  1  0.60183122  0.28209813  0.73056166  1  0.053245  0  0.097386  0.095586  0  1.005855  0
H  H19  1  0.39413695  0.26108910  0.80083280  1  0.044354  0  0.097135  0.091989  0  1.019093  0
H  H20  1  0.17205065  0.16766655  0.71050268  1  0.062028  0  0.102156  0.105268  0  0.988401  0
H  H21  1  0.82798309  0.82781973  0.29153108  1  0.062784  0  0.102634  0.105547  0  0.986193  0
H  H22  1  0.60642825  0.73275640  0.20196639  1  0.070883  0  0.097017  0.091366  0  1.021512  0
H  H23  1  0.39759260  0.71510070  0.27133812  1  0.07495  0  0.097945  0.096964  0  1.004583  0
H  H24  1  0.41158522  0.79587576  0.42979771  1  0.044029  0  0.095321  0.095161  0  1.010862  0
H  H25  1  0.63305840  0.89282615  0.51872312  1  0.056761  0  0.096951  0.097128  0  1.009925  0
H  H26  1  0.32497123  0.35216228  0.31388573  1  0.41226  0  0.308406  0.300777  0  0.937258  0
H  H27  1  0.22763479  0.32829596  0.39351570  1  0.485167  0  0.304289  0.318975  0  0.962819  0
H  H28  1  0.76691219  0.67992321  0.59839141  1  0.499837  0  0.299247  0.312441  0  0.973248  0
H  H29  1  0.68859827  0.64223944  0.68469067  1  0.421989  0  0.305397  0.299036  0  0.936885  0
H  H30  1  0.69205909  0.41046985  0.35301901  1  0.500248  0  0.295768  0.308839  0  1.005121  0
H  H31  1  0.55549061  0.30655297  0.33982866  1  0.43625  0  0.308018  0.303755  0  0.943487  0
H  H32  1  0.30801628  0.59227784  0.64642574  1  0.50896  0  0.297104  0.311571  0  1.002468  0
H  H33  1  0.45417423  0.68914673  0.66375849  1  0.454668  0  0.310385  0.307316  0  0.941519  0
C  C34  1  0.00901882  0.73761987  0.49836291  1  1.547737  0  0.22402  0.626283  0  4.117855  0
C  C35  1  0.98978084  0.26327311  0.50158426  1  1.540927  0  0.22357  0.627733  0  4.113149  0
C  C36  1  0.43492993  0.53264175  0.10714283  1  0.052446  0  -0.092165  -0.128504  0  4.017845  0
C  C37  1  0.56429690  0.46132752  0.89372791  1  -0.098964  0  -0.091101  -0.128391  0  4.016072  0
C  C38  1  0.29543607  0.55828598  0.07147284  1  -0.114185  0  -0.092539  -0.13728  0  4.010151  0
C  C39  1  0.70346203  0.43454123  0.92951038  1  0.010209  0  -0.092272  -0.136458  0  4.011749  0
C  C40  1  0.12966591  0.93989687  0.53536678  1  0.380488  0  0.087149  0.221963  0  4.066844  0
C  C41  1  0.86862439  0.06087479  0.46515240  1  0.417101  0  0.086624  0.223025  0  4.065451  0
C  C42  1  0.12232736  0.06796334  0.53947640  1  0.043983  0  -0.014624  -0.049118  0  3.961115  0
C  C43  1  0.87597473  0.93283950  0.46078921  1  -0.042776  0  -0.014212  -0.051591  0  3.962828  0
C  C44  1  0.99357823  0.12765749  0.50400461  1  0.042185  0  -0.026214  -0.17732  0  3.941257  0
C  C45  1  0.00487434  0.87318040  0.49601419  1  0.020541  0  -0.027539  -0.176522  0  3.940661  0
C  C46  1  0.40929800  0.42508091  0.44012436  1  1.015124  0  0.212291  0.292906  0  4.087833  0
C  C47  1  0.59024852  0.57574852  0.55837980  1  1.00021  0  0.202912  0.277427  0  4.086866  0
C  C48  1  0.54844376  0.44465424  0.43059814  1  0.991407  0  0.205151  0.28216  0  4.10193  0
C  C49  1  0.45144464  0.55556786  0.56821779  1  0.995515  0  0.211549  0.294319  0  4.107045  0
C  C50  1  0.05644876  0.51010783  0.68242949  1  1.549181  0  0.21693  0.597387  0  4.157368  0
C  C51  1  0.94364746  0.48996110  0.31777500  1  1.550074  0  0.216341  0.596627  0  4.159586  0
C  C52  1  0.11774680  0.52572408  0.78377522  1  -0.038547  0  -0.022229  -0.034259  0  3.994012  0
C  C53  1  0.88211460  0.47198132  0.21669991  1  -0.048875  0  -0.022633  -0.0354  0  3.995964  0
C  C54  1  0.09115531  0.57670868  0.93694334  1  -0.13205  0  -0.091224  -0.136889  0  4.001482  0
C  C55  1  0.90774105  0.41648780  0.06414882  1  0.021344  0  -0.08922  -0.133584  0  3.999528  0
C  C56  1  0.03231451  0.56261050  0.84366818  1  0.005293  0  -0.090115  -0.100712  0  4.015385  0
C  C57  1  0.96697635  0.43239418  0.15722408  1  -0.060326  0  -0.090807  -0.101224  0  4.015171  0
C  C58  1  0.26046284  0.50458551  0.81886062  1  -0.019509  0  -0.083534  -0.138313  0  3.939942  0
C  C59  1  0.73946376  0.49323901  0.18153380  1  -0.0233  0  -0.08308  -0.137268  0  3.938598  0
C  C60  1  0.32354803  0.51648865  0.91404853  1  -0.02723  0  -0.002214  0.036226  0  3.944237  0
C  C61  1  0.67595468  0.47917133  0.08660674  1  -0.026881  0  -0.005041  0.033663  0  3.945058  0
C  C62  1  0.23580106  0.55182497  0.97444397  1  -0.006969  0  -0.008158  0.079235  0  4.013296  0
C  C63  1  0.76331297  0.44203828  0.02647279  1  -0.017675  0  -0.005687  0.080108  0  4.012659  0
C  C64  1  0.47198543  0.49331139  0.95186857  1  0.010457  0  -0.005972  0.029111  0  3.956089  0
C  C65  1  0.52744065  0.50193072  0.04884152  1  -0.06104  0  -0.003806  0.031852  0  3.957525  0
C  C66  1  0.25223731  0.13376433  0.58927447  1  -0.035971  0  -0.006747  0.096227  0  3.982974  0
C  C67  1  0.37053990  0.14449464  0.55099018  1  -0.108113  0  -0.095455  -0.138409  0  3.981064  0
C  C68  1  0.49494317  0.19863995  0.60115137  1  -0.007874  0  -0.101599  -0.086673  0  4.035207  0
C  C69  1  0.50388431  0.24131694  0.69105202  1  -0.107669  0  -0.100039  -0.096429  0  4.031922  0
C  C70  1  0.38740729  0.23005193  0.73012201  1  0.017588  0  -0.097145  -0.082203  0  4.037912  0
C  C71  1  0.26252905  0.17716745  0.67954290  1  -0.046217  0  -0.09052  -0.124925  0  3.948317  0
C  C72  1  0.74605257  0.86677804  0.41130986  1  -0.026496  0  -0.005818  0.097577  0  3.979365  0
C  C73  1  0.73682906  0.82022320  0.32202892  1  -0.021306  0  -0.091738  -0.125411  0  3.946978  0
C  C74  1  0.61228104  0.76637184  0.27190553  1  -0.083943  0  -0.094962  -0.078677  0  4.034706  0
C  C75  1  0.49506088  0.75705090  0.31044482  1  -0.048429  0  -0.102576  -0.100889  0  4.031454  0
C  C76  1  0.50284800  0.80297105  0.39932084  1  -0.04468  0  -0.097801  -0.081093  0  4.029939  0
C  C77  1  0.62689052  0.85824355  0.44897716  1  -0.053295  0  -0.097082  -0.141765  0  3.980136  0
N  N78  1  0.63735448  0.51673071  0.49173731  1  -1.243321  0  -0.332633  -0.363606  0  3.484077  0
N  N79  1  0.36198882  0.48355167  0.50697091  1  -1.273208  0  -0.334496  -0.369985  0  3.464936  0
N  N80  1  0.25431639  0.88085204  0.57646289  1  -1.264171  0  -0.619122  -0.636185  0  3.356572  0
N  N81  1  0.74347094  0.12013988  0.42499948  1  -1.270758  0  -0.621321  -0.639255  0  3.351796  0
N  N82  1  0.32563239  0.34224199  0.38203469  1  -1.197351  0  -0.591095  -0.626089  0  3.315324  0
N  N83  1  0.67398393  0.66012907  0.61590757  1  -1.233145  0  -0.596409  -0.635345  0  3.307616  0
N  N84  1  0.59027599  0.39255709  0.35710869  1  -1.252365  0  -0.595899  -0.633188  0  3.336357  0
N  N85  1  0.40959196  0.60787001  0.64105913  1  -1.272325  0  -0.590677  -0.626604  0  3.34701  0
O  O86  1  0.90405737  0.68237202  0.51704147  1  -1.176653  0  -0.30605  -0.553075  0  2.397175  0
O  O87  1  0.09519639  0.31837150  0.48349446  1  -1.178754  0  -0.306954  -0.554709  0  2.387881  0
O  O88  1  0.11847462  0.68448953  0.48369785  1  -1.161548  0  -0.314439  -0.544604  0  2.327112  0
O  O89  1  0.88002257  0.31649437  0.51578145  1  -1.171888  0  -0.314379  -0.545042  0  2.329508  0
O  O90  1  0.92350135  0.50138158  0.65416204  1  -1.147729  0  -0.315369  -0.539168  0  2.303001  0
O  O91  1  0.07670639  0.49786596  0.34593946  1  -1.146583  0  -0.315312  -0.54057  0  2.305788  0
O  O92  1  0.14407893  0.50716576  0.63028185  1  -1.206533  0  -0.314305  -0.569896  0  2.406442  0
O  O93  1  0.85617240  0.49554572  0.36989353  1  -1.212453  0  -0.313842  -0.569184  0  2.408047  0
