# generated using pymatgen
data_CdH11C17N3O4
_symmetry_space_group_name_H-M   'P 1'
_cell_length_a   13.65413325
_cell_length_b   17.68424704
_cell_length_c   17.70170009
_cell_angle_alpha   113.61657948
_cell_angle_beta   104.95124887
_cell_angle_gamma   104.90674588
_symmetry_Int_Tables_number   1
_chemical_formula_structural   CdH11C17N3O4
_chemical_formula_sum   'Cd6 H66 C102 N18 O24'
_cell_volume   3455.56851657
_cell_formula_units_Z   6
loop_
 _symmetry_equiv_pos_site_id
 _symmetry_equiv_pos_as_xyz
  1  'x, y, z'
loop_
 _atom_site_type_symbol
 _atom_site_label
 _atom_site_symmetry_multiplicity
 _atom_site_fract_x
 _atom_site_fract_y
 _atom_site_fract_z
 _atom_site_occupancy
 _atom_site_pbe_bader_charge
 _atom_site_pbe_bader_spin_density
 _atom_site_pbe_cm5_charge
 _atom_site_pbe_ddec_charge
 _atom_site_pbe_ddec_spin_density
 _atom_site_pbe_ddec_sum_bond_order
 _atom_site_pbe_magmom
Cd  Cd0  1  0.14755316  0.58769739  0.22009997  1  1.257771  0  0.76894  0.819644  0  2.264529  0
Cd  Cd1  1  0.55986994  0.63201594  0.41214374  1  1.255718  0  0.768682  0.819234  0  2.262966  0
Cd  Cd2  1  0.92789445  0.77986606  0.36772252  1  1.256847  0  0.768786  0.819602  0  2.26446  0
Cd  Cd3  1  0.85245009  0.41230515  0.77990693  1  1.257771  0  0.768905  0.819574  0  2.264553  0
Cd  Cd4  1  0.44013448  0.36797985  0.58785955  1  1.255582  0  0.768695  0.819165  0  2.263328  0
Cd  Cd5  1  0.07210240  0.22013581  0.63227945  1  1.256777  0  0.768795  0.819637  0  2.264318  0
H  H6  1  0.27243123  0.50767299  0.48061518  1  0.132813  0  0.117473  0.138121  0  1.000226  0
H  H7  1  0.91540384  0.41729477  0.35684903  1  0.088762  0  0.117274  0.12993  0  0.985272  0
H  H8  1  0.94587234  0.49177036  0.26627103  1  0.116274  0  0.12182  0.096335  0  0.980416  0
H  H9  1  0.92297864  0.29830685  0.38215525  1  0.123914  0  0.11244  0.128637  0  0.999557  0
H  H10  1  0.23822265  0.51201187  0.59832844  1  0.135077  0  0.115866  0.13423  0  1.005035  0
H  H11  1  0.22355862  0.42616090  0.67886815  1  0.101004  0  0.120171  0.092664  0  0.984732  0
H  H12  1  0.25506276  0.44453734  0.18187383  1  0.102687  0  0.113231  0.087048  0  1.019933  0
H  H13  1  0.22233988  0.28898312  0.06727963  1  0.080596  0  0.111927  0.117717  0  0.981772  0
H  H14  1  0.04744864  0.20098753  0.92422161  1  0.089225  0  0.105463  0.097702  0  1.003574  0
H  H15  1  0.91346422  0.27422326  0.90309689  1  0.112685  0  0.1099  0.117645  0  1.007142  0
H  H16  1  0.95901247  0.42826746  0.02374348  1  0.137218  0  0.124232  0.10689  0  0.993968  0
H  H17  1  0.76532121  0.97286248  0.49227777  1  0.148241  0  0.117864  0.137923  0  1.001158  0
H  H18  1  0.49808181  0.93950761  0.58172490  1  0.088242  0  0.115563  0.128127  0  0.986921  0
H  H19  1  0.45379883  0.77428243  0.50714233  1  0.099746  0  0.121995  0.095894  0  0.981396  0
H  H20  1  0.62518425  0.08372261  0.70113725  1  0.115937  0  0.112269  0.129422  0  0.998798  0
H  H21  1  0.72653236  0.08646098  0.48773236  1  0.115447  0  0.115238  0.133981  0  1.004465  0
H  H22  1  0.79775394  0.25297403  0.57365254  1  0.113804  0  0.118893  0.091809  0  0.98352  0
H  H23  1  0.81033064  0.73708041  0.55513146  1  0.105076  0  0.112669  0.086013  0  1.021075  0
H  H24  1  0.93368450  0.77800707  0.71046311  1  0.063936  0  0.111608  0.116716  0  0.982878  0
H  H25  1  0.84731840  0.72293522  0.79857947  1  0.092789  0  0.105243  0.099272  0  1.002986  0
H  H26  1  0.64008431  0.62864665  0.72569537  1  0.092495  0  0.110206  0.117887  0  1.006997  0
H  H27  1  0.53099080  0.59529843  0.57184530  1  0.129632  0  0.123853  0.106317  0  0.992428  0
H  H28  1  0.79201401  0.51952583  0.02702951  1  0.129589  0  0.117918  0.138394  0  1.000862  0
H  H29  1  0.55829847  0.64269376  0.06014883  1  0.088736  0  0.116217  0.128449  0  0.986533  0
H  H30  1  0.67946411  0.73348540  0.22524882  1  0.103307  0  0.122337  0.09742  0  0.979847  0
H  H31  1  0.54111909  0.61789511  0.91606546  1  0.135059  0  0.112429  0.12844  0  0.999069  0
H  H32  1  0.63996160  0.40160686  0.91344925  1  0.133002  0  0.115367  0.134277  0  1.004019  0
H  H33  1  0.54486752  0.32113525  0.74704469  1  0.104726  0  0.119532  0.092564  0  0.983834  0
H  H34  1  0.07333772  0.81867150  0.26304510  1  0.138255  0  0.113766  0.087702  0  1.020168  0
H  H35  1  0.15461922  0.93342764  0.22209047  1  0.070264  0  0.112681  0.118071  0  0.982288  0
H  H36  1  0.12220994  0.07621602  0.27709180  1  0.067986  0  0.105162  0.098486  0  1.004021  0
H  H37  1  0.00958746  0.09697654  0.37151110  1  0.112999  0  0.110727  0.118893  0  1.007345  0
H  H38  1  0.93506419  0.97619964  0.40488416  1  0.140652  0  0.123786  0.106656  0  0.993852  0
H  H39  1  0.72757447  0.49232685  0.51939282  1  0.132966  0  0.117522  0.138236  0  1.00023  0
H  H40  1  0.08460142  0.58270575  0.64315068  1  0.089225  0  0.117278  0.129914  0  0.985225  0
H  H41  1  0.05413874  0.50823421  0.73373484  1  0.116183  0  0.121789  0.096305  0  0.980364  0
H  H42  1  0.07700834  0.70168894  0.61784007  1  0.124074  0  0.112472  0.128701  0  0.999628  0
H  H43  1  0.76176602  0.48798121  0.40167234  1  0.134875  0  0.11589  0.134243  0  1.004948  0
H  H44  1  0.77642826  0.57382407  0.32112507  1  0.100827  0  0.120148  0.09271  0  0.984664  0
H  H45  1  0.74493072  0.55545776  0.81813719  1  0.102519  0  0.113192  0.087054  0  1.01993  0
H  H46  1  0.77765283  0.71101199  0.93272277  1  0.08186  0  0.111913  0.117681  0  0.981877  0
H  H47  1  0.95254854  0.79901501  0.07577674  1  0.089163  0  0.105459  0.097716  0  1.003565  0
H  H48  1  0.08653651  0.72578333  0.09690605  1  0.112583  0  0.109882  0.117662  0  1.007097  0
H  H49  1  0.04098640  0.57173237  0.97626373  1  0.137259  0  0.12425  0.106931  0  0.993994  0
H  H50  1  0.23468186  0.02713668  0.50772040  1  0.14824  0  0.117824  0.137839  0  1.001098  0
H  H51  1  0.50192009  0.06050440  0.41826970  1  0.088349  0  0.115527  0.128146  0  0.986947  0
H  H52  1  0.54620107  0.22573160  0.49286568  1  0.101026  0  0.122018  0.095865  0  0.9815  0
H  H53  1  0.37480440  0.91627656  0.29884280  1  0.115801  0  0.112313  0.129501  0  0.998607  0
H  H54  1  0.27348132  0.91354427  0.51226131  1  0.116066  0  0.115275  0.134007  0  1.00448  0
H  H55  1  0.20226152  0.74703324  0.42634794  1  0.113667  0  0.118842  0.091642  0  0.983609  0
H  H56  1  0.18966276  0.26292213  0.44487123  1  0.105086  0  0.112672  0.086071  0  1.020958  0
H  H57  1  0.06631451  0.22197791  0.28953195  1  0.064202  0  0.111613  0.116768  0  0.982847  0
H  H58  1  0.15268059  0.27703759  0.20141015  1  0.092786  0  0.10518  0.09915  0  1.003039  0
H  H59  1  0.35990957  0.37134170  0.27429833  1  0.092224  0  0.110215  0.117846  0  1.007013  0
H  H60  1  0.46900041  0.40470885  0.42815772  1  0.129947  0  0.123857  0.106291  0  0.992541  0
H  H61  1  0.20799362  0.48047333  0.97297521  1  0.129635  0  0.117898  0.138377  0  1.000854  0
H  H62  1  0.44171118  0.35730946  0.93985566  1  0.088563  0  0.116234  0.128492  0  0.986448  0
H  H63  1  0.32054275  0.26651376  0.77475461  1  0.103302  0  0.12228  0.09733  0  0.979871  0
H  H64  1  0.45887294  0.38210473  0.08393079  1  0.134914  0  0.112433  0.12843  0  0.99908  0
H  H65  1  0.36005655  0.59839974  0.08654584  1  0.132765  0  0.115376  0.134282  0  1.003925  0
H  H66  1  0.45514449  0.67887270  0.25295538  1  0.104789  0  0.119542  0.09261  0  0.983772  0
H  H67  1  0.92666731  0.18133307  0.73696522  1  0.138075  0  0.113762  0.087715  0  1.020106  0
H  H68  1  0.84539001  0.06657626  0.77791590  1  0.070674  0  0.112692  0.118106  0  0.982318  0
H  H69  1  0.87778437  0.92378382  0.72290659  1  0.067577  0  0.105145  0.09845  0  1.003946  0
H  H70  1  0.99040178  0.90301925  0.62847902  1  0.113035  0  0.110727  0.118922  0  1.007228  0
H  H71  1  0.06491621  0.02379817  0.59510332  1  0.143795  0  0.123723  0.106561  0  0.993994  0
C  C72  1  0.20584657  0.53824361  0.37854219  1  0.487256  0  0.109831  0.111986  0  3.972364  0
C  C73  1  0.19703284  0.50231650  0.43467454  1  -0.004525  0  -0.067882  -0.167336  0  3.884844  0
C  C74  1  0.09171882  0.45635146  0.42741764  1  -0.019296  0  0.014754  0.107984  0  3.983793  0
C  C75  1  0.99929433  0.45153909  0.36515751  1  -0.001528  0  -0.077286  -0.167606  0  3.923602  0
C  C76  1  0.01556884  0.49260457  0.31413218  1  0.478898  0  0.052866  0.108146  0  3.952359  0
C  C77  1  0.31751630  0.57897201  0.37786320  1  1.601266  0  0.197141  0.524543  0  4.262051  0
C  C78  1  0.99261232  0.28518027  0.49678504  1  0.456257  0  0.108178  0.107687  0  3.958081  0
C  C79  1  0.99180463  0.33046384  0.44777725  1  -0.001384  0  -0.077613  -0.184856  0  3.919061  0
C  C80  1  0.08168516  0.41211642  0.48178252  1  -0.046756  0  0.004603  0.088749  0  4.00928  0
C  C81  1  0.16608496  0.44863710  0.56738224  1  -0.065597  0  -0.07672  -0.171551  0  3.923956  0
C  C82  1  0.15886690  0.40073616  0.61295661  1  0.565769  0  0.052869  0.119039  0  3.958428  0
C  C83  1  0.90079884  0.19177311  0.45828438  1  1.620325  0  0.179928  0.515748  0  4.306766  0
C  C84  1  0.18046048  0.40334425  0.11897815  1  0.458329  0  0.041729  0.079367  0  3.96153  0
C  C85  1  0.16146361  0.31701223  0.05510594  1  -0.003133  0  -0.088825  -0.14281  0  4.007235  0
C  C86  1  0.06450776  0.26862207  0.97579616  1  -0.110729  0  -0.069857  -0.036496  0  3.986636  0
C  C87  1  0.99034319  0.30841414  0.96339983  1  -0.013242  0  -0.078593  -0.116942  0  3.954616  0
C  C88  1  0.01532363  0.39514800  0.03065016  1  0.485833  0  0.058523  0.106613  0  3.895205  0
C  C89  1  0.66783523  0.84010742  0.46144032  1  0.437414  0  0.113026  0.114686  0  3.972537  0
C  C90  1  0.69514293  0.93226018  0.49745036  1  0.02556  0  -0.068023  -0.166079  0  3.88611  0
C  C91  1  0.63571837  0.97100815  0.54318603  1  -0.048841  0  0.011792  0.105731  0  3.984953  0
C  C92  1  0.54781913  0.91351572  0.54767190  1  -0.040941  0  -0.075064  -0.165191  0  3.923326  0
C  C93  1  0.52287471  0.82134344  0.50655294  1  0.539226  0  0.05453  0.110417  0  3.951667  0
C  C94  1  0.73868163  0.79859382  0.42076778  1  1.604981  0  0.195796  0.522755  0  4.261836  0
C  C95  1  0.70784023  0.21159059  0.71436098  1  0.452863  0  0.107405  0.105332  0  3.962101  0
C  C96  1  0.66179747  0.11725965  0.66905820  1  0.031667  0  -0.077891  -0.18599  0  3.920941  0
C  C97  1  0.66999400  0.06967179  0.58749474  1  -0.018105  0  0.00585  0.089392  0  4.007208  0
C  C98  1  0.71781988  0.11884929  0.55106669  1  -0.073  0  -0.076597  -0.169981  0  3.919027  0
C  C99  1  0.75850289  0.21239350  0.59900557  1  0.559448  0  0.053544  0.11968  0  3.954059  0
C  C100  1  0.70939368  0.26637291  0.80765481  1  1.628506  0  0.180558  0.516667  0  4.308405  0
C  C101  1  0.77715488  0.71540821  0.59637860  1  0.497505  0  0.041547  0.07964  0  3.966508  0
C  C102  1  0.84477069  0.73784723  0.68259322  1  -0.024183  0  -0.088422  -0.14015  0  4.008277  0
C  C103  1  0.79650457  0.70692352  0.73105957  1  -0.084945  0  -0.069535  -0.039063  0  3.988102  0
C  C104  1  0.68254018  0.65478805  0.69145409  1  -0.055939  0  -0.078538  -0.117494  0  3.954424  0
C  C105  1  0.62046528  0.63532355  0.60481762  1  0.556835  0  0.058755  0.107617  0  3.892324  0
C  C106  1  0.82730488  0.62138944  0.15965911  1  0.466697  0  0.11196  0.113743  0  3.974226  0
C  C107  1  0.76245265  0.56532044  0.06757522  1  0.011597  0  -0.069487  -0.16863  0  3.887942  0
C  C108  1  0.66433985  0.57246113  0.02879199  1  -0.056914  0  0.013237  0.108401  0  3.983967  0
C  C109  1  0.63400809  0.63454807  0.08618103  1  0.020204  0  -0.075086  -0.165384  0  3.923113  0
C  C110  1  0.70133740  0.68563362  0.17829646  1  0.49424  0  0.051559  0.106703  0  3.95382  0
C  C111  1  0.93956269  0.62201006  0.20112113  1  1.607554  0  0.196125  0.52489  0  4.26124  0
C  C112  1  0.49620623  0.50333156  0.78832273  1  0.459447  0  0.108125  0.107592  0  3.959722  0
C  C113  1  0.54431816  0.55227982  0.88258827  1  -0.010778  0  -0.076811  -0.183748  0  3.918659  0
C  C114  1  0.60006148  0.51820265  0.93016848  1  -0.018938  0  0.004576  0.085628  0  4.009383  0
C  C115  1  0.59888558  0.43260815  0.88104570  1  -0.056349  0  -0.075892  -0.169483  0  3.920434  0
C  C116  1  0.54616342  0.38708445  0.78758110  1  0.528707  0  0.052763  0.118681  0  3.956203  0
C  C117  1  0.44297806  0.54190523  0.73355186  1  1.624054  0  0.179718  0.514415  0  4.308423  0
C  C118  1  0.06139914  0.88144929  0.28472379  1  0.410189  0  0.040538  0.078031  0  3.969381  0
C  C119  1  0.10592124  0.94541157  0.26227756  1  0.000257  0  -0.089657  -0.142013  0  4.008532  0
C  C120  1  0.08799104  0.02460269  0.29317730  1  -0.071034  0  -0.069589  -0.038941  0  3.98493  0
C  C121  1  0.02634497  0.03679684  0.34536386  1  -0.037107  0  -0.079489  -0.118842  0  3.952951  0
C  C122  1  0.98441849  0.96945311  0.36484491  1  0.49424  0  0.058894  0.107467  0  3.890974  0
C  C123  1  0.79416124  0.46176502  0.62146861  1  0.486923  0  0.109867  0.112013  0  3.972641  0
C  C124  1  0.80296881  0.49768132  0.56532958  1  -0.004436  0  -0.067973  -0.167496  0  3.885042  0
C  C125  1  0.90828037  0.54364298  0.57258182  1  -0.019483  0  0.014816  0.108069  0  3.983595  0
C  C126  1  0.00070764  0.54845940  0.63483960  1  -0.00204  0  -0.077278  -0.167567  0  3.923517  0
C  C127  1  0.98443735  0.50739933  0.68587245  1  0.478918  0  0.052957  0.108289  0  3.952324  0
C  C128  1  0.68249861  0.42104472  0.62215678  1  1.602004  0  0.19716  0.524452  0  4.262495  0
C  C129  1  0.00737675  0.71481213  0.50320651  1  0.456279  0  0.108189  0.107602  0  3.958174  0
C  C130  1  0.00818698  0.66953059  0.55221675  1  -0.001232  0  -0.077676  -0.184893  0  3.919318  0
C  C131  1  0.91830964  0.58787531  0.51821272  1  -0.046759  0  0.00456  0.088603  0  4.009333  0
C  C132  1  0.83390825  0.55135598  0.43261661  1  -0.065189  0  -0.076698  -0.171431  0  3.923566  0
C  C133  1  0.84112125  0.59925287  0.38703623  1  0.56557  0  0.052738  0.118847  0  3.95817  0
C  C134  1  0.09919478  0.80821930  0.54170694  1  1.620708  0  0.179919  0.515824  0  4.306637  0
C  C135  1  0.81952989  0.59665221  0.88102771  1  0.458487  0  0.041695  0.079276  0  3.961636  0
C  C136  1  0.83852750  0.68298422  0.94489556  1  -0.004469  0  -0.0888  -0.142706  0  4.007297  0
C  C137  1  0.93548538  0.73137844  0.02420397  1  -0.110801  0  -0.069912  -0.036651  0  3.98674  0
C  C138  1  0.00965265  0.69159178  0.03660413  1  -0.013188  0  -0.078545  -0.11688  0  3.954611  0
C  C139  1  0.98467069  0.60485183  0.96935501  1  0.485842  0  0.058541  0.106626  0  3.895109  0
C  C140  1  0.33216313  0.15989445  0.53856139  1  0.437903  0  0.113036  0.11469  0  3.972454  0
C  C141  1  0.30485668  0.06773966  0.50254400  1  0.025153  0  -0.068043  -0.166016  0  3.885907  0
C  C142  1  0.36427888  0.02899304  0.45680502  1  -0.049018  0  0.01189  0.105768  0  3.984594  0
C  C143  1  0.45218150  0.08649223  0.45232422  1  -0.039178  0  -0.074985  -0.165144  0  3.923354  0
C  C144  1  0.47712517  0.17866451  0.49344981  1  0.536448  0  0.054463  0.110443  0  3.951912  0
C  C145  1  0.26132053  0.20140805  0.57924089  1  1.604482  0  0.195766  0.522674  0  4.261916  0
C  C146  1  0.29216797  0.78841128  0.28563307  1  0.452917  0  0.107498  0.105681  0  3.961963  0
C  C147  1  0.33820213  0.88274019  0.33092994  1  0.031556  0  -0.078027  -0.186179  0  3.920757  0
C  C148  1  0.33000907  0.93033346  0.41249795  1  -0.018187  0  0.005839  0.089339  0  4.007119  0
C  C149  1  0.28219144  0.88115731  0.44892931  1  -0.073523  0  -0.076647  -0.169964  0  3.919056  0
C  C150  1  0.24151265  0.78761243  0.40099270  1  0.559514  0  0.053804  0.120109  0  3.953692  0
C  C151  1  0.29059884  0.73361882  0.19233320  1  1.628399  0  0.180482  0.516591  0  4.308054  0
C  C152  1  0.22284062  0.28459095  0.40362259  1  0.497231  0  0.041535  0.079502  0  3.966489  0
C  C153  1  0.15522546  0.26214112  0.31740320  1  -0.024662  0  -0.088413  -0.14014  0  4.008197  0
C  C154  1  0.20349082  0.29305875  0.26893369  1  -0.084219  0  -0.069425  -0.038894  0  3.988039  0
C  C155  1  0.31745539  0.34520367  0.30854412  1  -0.056178  0  -0.078643  -0.117577  0  3.954503  0
C  C156  1  0.37952963  0.36467899  0.39518480  1  0.556662  0  0.058798  0.107674  0  3.892512  0
C  C157  1  0.17269684  0.37860702  0.84034562  1  0.466245  0  0.111925  0.11379  0  3.974109  0
C  C158  1  0.23755245  0.43467670  0.93242818  1  0.011658  0  -0.069396  -0.168491  0  3.887761  0
C  C159  1  0.33566845  0.42753938  0.97121058  1  -0.056688  0  0.013193  0.108276  0  3.983954  0
C  C160  1  0.36599911  0.36545177  0.91382275  1  0.019772  0  -0.075139  -0.165506  0  3.922898  0
C  C161  1  0.29866769  0.31436352  0.82170694  1  0.494681  0  0.051742  0.107009  0  3.953491  0
C  C162  1  0.06044216  0.37799113  0.79888498  1  1.608433  0  0.196057  0.524634  0  4.261248  0
C  C163  1  0.50379878  0.49666693  0.21167555  1  0.460113  0  0.108085  0.107461  0  3.959911  0
C  C164  1  0.45568441  0.44772137  0.11741174  1  -0.010635  0  -0.076868  -0.18376  0  3.918732  0
C  C165  1  0.39994640  0.48179855  0.06983202  1  -0.019646  0  0.004515  0.085541  0  4.009453  0
C  C166  1  0.40112633  0.56739507  0.11895190  1  -0.055774  0  -0.075773  -0.169258  0  3.920156  0
C  C167  1  0.45384505  0.61291944  0.21241890  1  0.528673  0  0.052721  0.118514  0  3.956166  0
C  C168  1  0.55702341  0.45809529  0.26644201  1  1.623913  0  0.179626  0.514406  0  4.308721  0
C  C169  1  0.93859982  0.11855528  0.71528251  1  0.409924  0  0.040553  0.078081  0  3.969253  0
C  C170  1  0.89408067  0.05459435  0.73772929  1  -0.000179  0  -0.089635  -0.141989  0  4.008773  0
C  C171  1  0.91200396  0.97540458  0.70682647  1  -0.070518  0  -0.069643  -0.038985  0  3.984935  0
C  C172  1  0.97364766  0.96320570  0.65463303  1  -0.036574  0  -0.079467  -0.11887  0  3.952827  0
C  C173  1  0.01557035  0.03054943  0.63514840  1  0.490496  0  0.058955  0.107551  0  3.891119  0
N  N174  1  0.11643506  0.53398467  0.31959143  1  -1.226977  0  -0.318618  -0.256945  0  3.489769  0
N  N175  1  0.07586243  0.32014956  0.57737361  1  -1.244395  0  -0.32825  -0.252477  0  3.541675  0
N  N176  1  0.10874282  0.44163584  0.10708033  1  -1.224076  0  -0.324431  -0.229718  0  3.478658  0
N  N177  1  0.58245803  0.78536731  0.46541404  1  -1.236014  0  -0.320624  -0.26033  0  3.49076  0
N  N178  1  0.75609155  0.25733961  0.67950911  1  -1.233993  0  -0.327488  -0.252585  0  3.540886  0
N  N179  1  0.66712024  0.66524643  0.55824188  1  -1.257409  0  -0.323616  -0.229114  0  3.481875  0
N  N180  1  0.79680687  0.68027301  0.21430557  1  -1.208004  0  -0.318049  -0.257777  0  3.489145  0
N  N181  1  0.49883793  0.42274392  0.74266506  1  -1.244755  0  -0.328358  -0.252113  0  3.540717  0
N  N182  1  0.00164332  0.89312923  0.33489779  1  -1.211402  0  -0.323602  -0.2281  0  3.481686  0
N  N183  1  0.88357283  0.46602260  0.68041942  1  -1.226777  0  -0.318663  -0.257053  0  3.489953  0
N  N184  1  0.92412655  0.67983811  0.42261660  1  -1.24466  0  -0.328129  -0.252356  0  3.541681  0
N  N185  1  0.89124670  0.55836197  0.89292477  1  -1.223838  0  -0.324392  -0.229711  0  3.4787  0
N  N186  1  0.41754092  0.21463725  0.53459056  1  -1.236223  0  -0.320619  -0.260375  0  3.490841  0
N  N187  1  0.24392163  0.74266158  0.32049018  1  -1.233593  0  -0.327676  -0.253006  0  3.540713  0
N  N188  1  0.33287383  0.33475746  0.44176318  1  -1.257269  0  -0.323618  -0.229049  0  3.48185  0
N  N189  1  0.20319671  0.31972412  0.78569809  1  -1.207678  0  -0.318129  -0.257945  0  3.488959  0
N  N190  1  0.50116919  0.57725727  0.25733641  1  -1.245307  0  -0.328311  -0.251995  0  3.540432  0
N  N191  1  0.99834814  0.10687398  0.66510195  1  -1.210999  0  -0.323558  -0.228109  0  3.481399  0
O  O192  1  0.31906217  0.59349536  0.31377119  1  -1.169978  0  -0.317124  -0.549718  0  2.310447  0
O  O193  1  0.40263039  0.59370520  0.44164946  1  -1.166616  0  -0.325107  -0.537522  0  2.237708  0
O  O194  1  0.92309156  0.14462257  0.49471538  1  -1.172647  0  -0.350753  -0.574088  0  2.237369  0
O  O195  1  0.81301816  0.16890365  0.39480231  1  -1.158078  0  -0.357535  -0.548096  0  2.023232  0
O  O196  1  0.72555122  0.71984889  0.40609124  1  -1.176503  0  -0.317303  -0.549883  0  2.30825  0
O  O197  1  0.80916632  0.84771898  0.40618685  1  -1.162622  0  -0.324795  -0.537217  0  2.240492  0
O  O198  1  0.77897126  0.34997013  0.85499866  1  -1.178535  0  -0.351143  -0.572876  0  2.236783  0
O  O199  1  0.64435367  0.22566331  0.83030863  1  -1.165283  0  -0.35823  -0.549051  0  2.024368  0
O  O200  1  0.00526569  0.68598116  0.27986428  1  -1.185584  0  -0.317128  -0.55017  0  2.309748  0
O  O201  1  0.96084276  0.55825880  0.15200666  1  -1.163081  0  -0.324585  -0.538139  0  2.237219  0
O  O202  1  0.42892014  0.50560544  0.65003912  1  -1.171059  0  -0.351501  -0.573611  0  2.238165  0
O  O203  1  0.41865992  0.60532581  0.77418661  1  -1.165168  0  -0.357182  -0.547328  0  2.021979  0
O  O204  1  0.68095114  0.40652272  0.68624902  1  -1.170359  0  -0.31705  -0.549504  0  2.310481  0
O  O205  1  0.59738107  0.40631221  0.55837406  1  -1.166821  0  -0.32518  -0.537586  0  2.237884  0
O  O206  1  0.07689591  0.85537118  0.50527414  1  -1.172866  0  -0.350872  -0.574206  0  2.237215  0
O  O207  1  0.18696938  0.83108268  0.60517972  1  -1.158098  0  -0.357411  -0.547994  0  2.023557  0
O  O208  1  0.27446233  0.28015905  0.59393003  1  -1.176313  0  -0.317283  -0.549758  0  2.30823  0
O  O209  1  0.19083212  0.15228154  0.59381546  1  -1.162484  0  -0.324797  -0.53725  0  2.240504  0
O  O210  1  0.22103324  0.65002430  0.14500241  1  -1.17852  0  -0.351125  -0.572858  0  2.23701  0
O  O211  1  0.35563050  0.77433450  0.16966435  1  -1.165315  0  -0.35822  -0.549106  0  2.02378  0
O  O212  1  0.99474961  0.31403490  0.72013517  1  -1.185923  0  -0.317169  -0.550112  0  2.309603  0
O  O213  1  0.03915435  0.44173293  0.84801050  1  -1.163366  0  -0.324491  -0.537986  0  2.237325  0
O  O214  1  0.57108139  0.49438156  0.34995217  1  -1.17119  0  -0.351411  -0.573578  0  2.238307  0
O  O215  1  0.58134667  0.39467132  0.22580354  1  -1.165102  0  -0.357149  -0.547335  0  2.021816  0
