# generated using pymatgen
data_La2Cu3H30C24(NO4)6
_symmetry_space_group_name_H-M   'P 1'
_cell_length_a   13.45457207
_cell_length_b   13.45457198
_cell_length_c   14.95122757
_cell_angle_alpha   89.99973662
_cell_angle_beta   90.00014863
_cell_angle_gamma   120.00009098
_symmetry_Int_Tables_number   1
_chemical_formula_structural   La2Cu3H30C24(NO4)6
_chemical_formula_sum   'La4 Cu6 H60 C48 N12 O48'
_cell_volume   2343.94199912
_cell_formula_units_Z   2
loop_
 _symmetry_equiv_pos_site_id
 _symmetry_equiv_pos_as_xyz
  1  'x, y, z'
loop_
 _atom_site_type_symbol
 _atom_site_label
 _atom_site_symmetry_multiplicity
 _atom_site_fract_x
 _atom_site_fract_y
 _atom_site_fract_z
 _atom_site_occupancy
 _atom_site_pbe_bader_charge
 _atom_site_pbe_bader_spin_density
 _atom_site_pbe_cm5_charge
 _atom_site_pbe_ddec_charge
 _atom_site_pbe_ddec_spin_density
 _atom_site_pbe_ddec_sum_bond_order
 _atom_site_pbe_magmom
La  La0  1  0.33333487  0.66666710  0.66918419  1  2.259828  0.003311  1.404417  1.876464  0.004743  2.450743  0.003
La  La1  1  0.66666762  0.33333399  0.83081147  1  2.259778  0.003311  1.404394  1.876284  0.004743  2.451013  0.003
La  La2  1  0.66666731  0.33333243  0.33081640  1  2.259849  0.003311  1.404422  1.876494  0.004743  2.450719  0.003
La  La3  1  0.33333370  0.66666640  0.16918712  1  2.259774  0.003311  1.404371  1.876303  0.004743  2.450994  0.003
Cu  Cu4  1  0.49999901  0.99999912  0.49999960  1  1.052967  0.581582  0.744498  0.762061  0.737178  2.225389  0.58
Cu  Cu5  1  0.50000023  0.50000062  0.49999996  1  1.054044  0.581591  0.744468  0.76198  0.737175  2.225403  0.58
Cu  Cu6  1  0.00000057  0.50000154  0.49999938  1  1.053613  0.581591  0.74445  0.761961  0.737184  2.225388  0.58
Cu  Cu7  1  0.49999965  0.99999985  0.99999941  1  1.053528  0.581588  0.744471  0.76207  0.737181  2.225221  0.58
Cu  Cu8  1  0.99999946  0.50000052  0.99999963  1  1.052894  0.581585  0.744468  0.762039  0.737179  2.225243  0.58
Cu  Cu9  1  0.50000004  0.49999747  0.00000089  1  1.054032  0.581586  0.744462  0.761997  0.73717  2.225368  0.58
H  H10  1  0.36252315  0.04018270  0.41947560  1  0.506356  -0.000221  0.291086  0.252327  4.4e-05  1.015456  0.0
H  H11  1  0.17038203  0.86496158  0.47270474  1  0.047047  0.005908  0.109534  0.10497  0.002997  0.975888  0.003
H  H12  1  0.26011600  0.97407312  0.55019057  1  0.07928  0.000248  0.120303  0.122107  2.6e-05  0.971662  0.0
H  H13  1  0.31497699  0.92194633  0.30071624  1  0.073375  0.002043  0.121877  0.124485  0.001023  0.963375  0.001
H  H14  1  0.26162562  0.80109482  0.37033747  1  0.120822  0.000334  0.125021  0.131928  0.000154  0.993333  0.0
H  H15  1  0.67766174  0.63747871  0.41947740  1  0.496293  -0.000203  0.291088  0.252345  4.4e-05  1.015482  0.0
H  H16  1  0.69457990  0.82961976  0.47270476  1  0.05589  0.005898  0.109562  0.105031  0.002997  0.975913  0.003
H  H17  1  0.71395616  0.73988499  0.55019091  1  0.091981  0.000244  0.12032  0.122136  2.6e-05  0.971631  0.0
H  H18  1  0.60697022  0.68502293  0.30071640  1  0.078267  0.002034  0.121879  0.124483  0.001023  0.963355  0.001
H  H19  1  0.53946775  0.73837242  0.37033658  1  0.109086  0.000338  0.12502  0.131895  0.000154  0.993369  0.0
H  H20  1  0.95981751  0.32234079  0.41947705  1  0.503532  -0.000172  0.291105  0.252363  4.3e-05  1.015475  0.0
H  H21  1  0.13504127  0.30542269  0.47270653  1  0.048975  0.005906  0.109533  0.104983  0.002997  0.975879  0.003
H  H22  1  0.02592534  0.28604217  0.55019105  1  0.096417  0.000245  0.120298  0.122103  2.6e-05  0.971641  0.0
H  H23  1  0.07805239  0.39302910  0.30071639  1  0.076448  0.002041  0.121883  0.12449  0.001023  0.963342  0.001
H  H24  1  0.19890424  0.46053116  0.37033743  1  0.108941  0.000338  0.12501  0.131885  0.000154  0.993376  0.0
H  H25  1  0.32234288  0.95981915  0.08051887  1  0.503876  -0.000172  0.291127  0.252417  4.3e-05  1.015403  0.0
H  H26  1  0.30542490  0.13504302  0.02728814  1  0.049125  0.005905  0.109549  0.105016  0.002997  0.975876  0.003
H  H27  1  0.28604329  0.02592333  0.94980590  1  0.096275  0.000245  0.120329  0.122137  2.6e-05  0.971591  0.0
H  H28  1  0.39302229  0.07805198  0.19928159  1  0.076415  0.002041  0.121888  0.124522  0.001023  0.963382  0.001
H  H29  1  0.46052909  0.19890685  0.12966306  1  0.10912  0.000338  0.125063  0.131987  0.000154  0.993371  0.0
H  H30  1  0.04017968  0.36252395  0.08052044  1  0.506427  -0.000221  0.291144  0.252443  4.3e-05  1.015306  0.0
H  H31  1  0.86495675  0.17038189  0.02729006  1  0.047377  0.005907  0.109535  0.104991  0.002997  0.975916  0.003
H  H32  1  0.97407538  0.26012028  0.94980756  1  0.079453  0.000247  0.120306  0.122104  2.6e-05  0.971596  0.0
H  H33  1  0.92194565  0.31496898  0.19928239  1  0.073435  0.002044  0.121883  0.12451  0.001023  0.963374  0.001
H  H34  1  0.80109160  0.26162194  0.12966333  1  0.120767  0.000334  0.125064  0.131978  0.000154  0.993383  0.0
H  H35  1  0.63747626  0.67765453  0.08051915  1  0.49602  -0.000204  0.291163  0.252474  4.3e-05  1.015318  0.0
H  H36  1  0.82961806  0.69457515  0.02728960  1  0.055943  0.005898  0.109533  0.105014  0.002997  0.975924  0.003
H  H37  1  0.73987982  0.71395301  0.94980568  1  0.092255  0.000244  0.120312  0.122111  2.6e-05  0.971628  0.0
H  H38  1  0.68503411  0.60698008  0.19928218  1  0.078561  0.002033  0.121916  0.124569  0.001023  0.963416  0.001
H  H39  1  0.73838133  0.53947275  0.12966535  1  0.108982  0.000338  0.125057  0.132029  0.000154  0.993313  0.0
H  H40  1  0.63747626  0.95981663  0.58052366  1  0.506332  -0.000221  0.29111  0.25235  4.3e-05  1.015421  0.0
H  H41  1  0.82961812  0.13503850  0.52729452  1  0.047063  0.005908  0.109543  0.105001  0.002997  0.975865  0.003
H  H42  1  0.73988298  0.02592664  0.44980803  1  0.079262  0.000248  0.120302  0.122098  2.6e-05  0.971655  0.0
H  H43  1  0.68502199  0.07805343  0.69928302  1  0.073393  0.002043  0.121885  0.124501  0.001023  0.96338  0.001
H  H44  1  0.73837410  0.19890569  0.62966246  1  0.120827  0.000334  0.125021  0.131918  0.000154  0.993367  0.0
H  H45  1  0.32233799  0.36252180  0.58052186  1  0.49628  -0.000203  0.291086  0.252347  4.4e-05  1.015479  0.0
H  H46  1  0.30542100  0.17038106  0.52729450  1  0.055904  0.005898  0.109561  0.105049  0.002997  0.975925  0.003
H  H47  1  0.28604357  0.26011551  0.44980835  1  0.091965  0.000244  0.120307  0.12213  2.6e-05  0.971633  0.0
H  H48  1  0.39302759  0.31497651  0.69928419  1  0.078236  0.002034  0.121879  0.124486  0.001023  0.963397  0.001
H  H49  1  0.46053155  0.26162851  0.62966334  1  0.109072  0.000337  0.125031  0.131912  0.000154  0.993346  0.0
H  H50  1  0.04018370  0.67766121  0.58052221  1  0.503826  -0.000172  0.291089  0.252334  4.4e-05  1.015494  0.0
H  H51  1  0.86495963  0.69457813  0.52729273  1  0.04921  0.005905  0.109537  0.105  0.002997  0.975877  0.003
H  H52  1  0.97407438  0.71395833  0.44980754  1  0.096403  0.000245  0.120282  0.122076  2.6e-05  0.971676  0.0
H  H53  1  0.92194820  0.60697055  0.69928287  1  0.076455  0.002041  0.121886  0.124513  0.001023  0.963351  0.001
H  H54  1  0.80109560  0.53946774  0.62966183  1  0.108951  0.000338  0.12502  0.131898  0.000154  0.993372  0.0
H  H55  1  0.67765653  0.04018019  0.91948039  1  0.503883  -0.000172  0.291143  0.252396  4.3e-05  1.015418  0.0
H  H56  1  0.69457525  0.86495706  0.97271179  1  0.049125  0.005905  0.109548  0.105012  0.002997  0.975881  0.003
H  H57  1  0.71395612  0.97407600  0.05019469  1  0.096278  0.000245  0.120334  0.122145  2.6e-05  0.971571  0.0
H  H58  1  0.60697829  0.92194767  0.80071767  1  0.076447  0.002041  0.121889  0.124528  0.001023  0.96339  0.001
H  H59  1  0.53947150  0.80109280  0.87033687  1  0.109102  0.000338  0.125052  0.131965  0.000154  0.993396  0.0
H  H60  1  0.95982078  0.63747730  0.91947949  1  0.506427  -0.000221  0.291151  0.252411  4.3e-05  1.01535  0.0
H  H61  1  0.13504426  0.82961733  0.97270987  1  0.04739  0.005907  0.109554  0.105011  0.002997  0.975898  0.003
H  H62  1  0.02592232  0.73988076  0.05019504  1  0.079275  0.000247  0.12033  0.12216  2.6e-05  0.97159  0.0
H  H63  1  0.07805408  0.68503153  0.80071754  1  0.073426  0.002043  0.121883  0.124507  0.001023  0.963393  0.001
H  H64  1  0.19890887  0.73837931  0.87033593  1  0.120766  0.000334  0.125048  0.131972  0.000154  0.99338  0.0
H  H65  1  0.36252295  0.32234203  0.91948278  1  0.496265  -0.000204  0.291132  0.252418  4.3e-05  1.015435  0.0
H  H66  1  0.17038104  0.30542301  0.97271033  1  0.055936  0.005898  0.109544  0.105025  0.002997  0.975878  0.003
H  H67  1  0.26011779  0.28604366  0.05019693  1  0.092759  0.000244  0.120314  0.12212  2.6e-05  0.971622  0.0
H  H68  1  0.31496924  0.39301977  0.80071976  1  0.078187  0.002033  0.121899  0.124515  0.001023  0.963379  0.001
H  H69  1  0.26162234  0.46052826  0.87033658  1  0.109025  0.000338  0.125016  0.13191  0.000154  0.993315  0.0
C  C70  1  0.26501903  0.81957610  0.56444725  1  1.588775  0.002315  0.208948  0.617852  0.001299  4.164094  0.002
C  C71  1  0.25531057  0.90717207  0.50528536  1  0.276289  0.000387  -0.06746  -0.181645  0.000247  3.900531  -0.002
C  C72  1  0.33468913  0.88840826  0.36111605  1  0.237053  0.001472  -0.06486  -0.200442  0.000934  3.869126  -0.001
C  C73  1  0.44018137  0.87742533  0.34266220  1  1.591553  0.001013  0.231321  0.645186  0.000819  4.118131  0.001
C  C74  1  0.55455641  0.73498049  0.56444709  1  1.598819  0.002308  0.208926  0.617804  0.001299  4.164091  0.002
C  C75  1  0.65186005  0.74468907  0.50528415  1  0.272792  0.00041  -0.067548  -0.181783  0.000248  3.900639  -0.002
C  C76  1  0.55371820  0.66530918  0.36111477  1  0.244663  0.001486  -0.064835  -0.200366  0.000935  3.869074  -0.001
C  C77  1  0.43724405  0.55981689  0.34265884  1  1.585715  0.000998  0.231322  0.645155  0.000818  4.118308  0.001
C  C78  1  0.18042016  0.44544254  0.56445127  1  1.597321  0.002299  0.208815  0.617685  0.001299  4.164271  0.002
C  C79  1  0.09282728  0.34813904  0.50528499  1  0.247737  0.000418  -0.067481  -0.181642  0.000247  3.900525  -0.002
C  C80  1  0.11159144  0.44628134  0.36111470  1  0.248879  0.001453  -0.064847  -0.20041  0.000935  3.869111  -0.001
C  C81  1  0.12257526  0.56275776  0.34265913  1  1.589335  0.000997  0.231378  0.645294  0.000819  4.118147  0.001
C  C82  1  0.44544006  0.18041884  0.93554340  1  1.597585  0.002298  0.208747  0.617473  0.001299  4.164695  0.002
C  C83  1  0.34813909  0.09282763  0.99471118  1  0.247672  0.000419  -0.067533  -0.181651  0.000247  3.900508  -0.002
C  C84  1  0.44627701  0.11159180  0.13888454  1  0.24879  0.001453  -0.064933  -0.200592  0.000935  3.869209  -0.001
C  C85  1  0.56275097  0.12257057  0.15734066  1  1.58885  0.001  0.231359  0.645322  0.000819  4.118066  0.001
C  C86  1  0.81958127  0.26502194  0.93554433  1  1.587831  0.002316  0.208736  0.617413  0.001299  4.164613  0.002
C  C87  1  0.90717082  0.25531221  0.99471217  1  0.275717  0.000389  -0.067507  -0.181573  0.000246  3.900476  -0.002
C  C88  1  0.88840705  0.33468488  0.13888459  1  0.236646  0.001471  -0.064945  -0.200601  0.000935  3.869275  -0.001
C  C89  1  0.87742939  0.44018068  0.15734037  1  1.590951  0.001014  0.231366  0.645345  0.000819  4.118043  0.001
C  C90  1  0.73498066  0.55455689  0.93554630  1  1.597712  0.002309  0.208948  0.617755  0.001299  4.164167  0.002
C  C91  1  0.74468806  0.65185849  0.99471249  1  0.272499  0.000408  -0.067523  -0.18171  0.000247  3.900528  -0.002
C  C92  1  0.66531795  0.55372479  0.13888589  1  0.24482  0.001485  -0.06496  -0.200722  0.000935  3.869258  -0.001
C  C93  1  0.55982315  0.43725157  0.15734068  1  1.585812  0.000999  0.23137  0.645333  0.000819  4.118104  0.001
C  C94  1  0.73497964  0.18042249  0.43555201  1  1.589056  0.002315  0.208956  0.617837  0.001299  4.164125  0.002
C  C95  1  0.74468884  0.09282726  0.49471390  1  0.276312  0.000387  -0.067492  -0.181688  0.000247  3.900495  -0.002
C  C96  1  0.66530985  0.11159151  0.63888387  1  0.237061  0.001472  -0.064851  -0.200432  0.000935  3.869133  -0.001
C  C97  1  0.55981761  0.12257444  0.65733706  1  1.591615  0.001012  0.23132  0.645165  0.000819  4.118126  0.001
C  C98  1  0.44544375  0.26501959  0.43555217  1  1.598913  0.002308  0.208952  0.617772  0.001299  4.164114  0.002
C  C99  1  0.34813967  0.25531143  0.49471578  1  0.272759  0.00041  -0.067562  -0.181802  0.000248  3.900673  -0.002
C  C100  1  0.44628035  0.33469101  0.63888583  1  0.244725  0.001486  -0.064849  -0.200361  0.000935  3.869075  -0.001
C  C101  1  0.56275524  0.44018405  0.65734243  1  1.585734  0.000999  0.231318  0.645129  0.000819  4.118244  0.001
C  C102  1  0.81958031  0.55455871  0.43554866  1  1.597829  0.002298  0.208788  0.617657  0.001299  4.164403  0.002
C  C103  1  0.90717319  0.65186221  0.49471360  1  0.247367  0.000419  -0.067479  -0.181637  0.000246  3.900454  -0.002
C  C104  1  0.88840914  0.55371831  0.63888456  1  0.248896  0.001453  -0.06483  -0.200408  0.000935  3.86914  -0.001
C  C105  1  0.87742607  0.43724263  0.65734013  1  1.589184  0.000998  0.231322  0.645152  0.000819  4.118177  0.001
C  C106  1  0.55455967  0.81958166  0.06445653  1  1.597581  0.002298  0.208769  0.617495  0.001299  4.164673  0.002
C  C107  1  0.65186107  0.90717245  0.00528875  1  0.247667  0.000419  -0.06751  -0.181649  0.000248  3.900514  -0.002
C  C108  1  0.55372357  0.88840785  0.86111539  1  0.24876  0.001453  -0.064908  -0.200584  0.000935  3.869229  -0.001
C  C109  1  0.43724962  0.87742908  0.84265927  1  1.589519  0.000998  0.231363  0.645346  0.000819  4.118055  0.001
C  C110  1  0.18041728  0.73497825  0.06445761  1  1.587865  0.002316  0.208792  0.617515  0.001299  4.164603  0.002
C  C111  1  0.09282613  0.74468809  0.00528977  1  0.275599  0.000389  -0.067495  -0.181646  0.000247  3.900554  -0.002
C  C112  1  0.11159268  0.66531562  0.86111533  1  0.23666  0.001471  -0.064919  -0.200579  0.000935  3.869182  -0.001
C  C113  1  0.12257076  0.55981939  0.84265889  1  1.590968  0.001013  0.231344  0.645349  0.000819  4.117994  0.001
C  C114  1  0.26501875  0.44544244  0.06445229  1  1.597598  0.002308  0.208922  0.617792  0.001299  4.164051  0.002
C  C115  1  0.25531072  0.34813850  0.00528944  1  0.271879  0.000408  -0.067498  -0.181706  0.000247  3.900556  -0.002
C  C116  1  0.33468454  0.44627591  0.86111605  1  0.245258  0.001485  -0.064886  -0.2005  0.000935  3.86912  -0.001
C  C117  1  0.44018095  0.56274902  0.84265992  1  1.585622  0.001  0.231348  0.645382  0.000819  4.118054  0.001
N  N118  1  0.34897468  0.96053342  0.43982652  1  -1.079576  0.095443  -0.495902  -0.280449  0.061011  3.559531  0.079
N  N119  1  0.61155801  0.65102472  0.43982747  1  -1.091319  0.095405  -0.495871  -0.280381  0.061008  3.559531  0.079
N  N120  1  0.03946751  0.38844315  0.43982734  1  -1.078849  0.095386  -0.495919  -0.280444  0.061008  3.559687  0.079
N  N121  1  0.38844283  0.03947016  0.06017135  1  -1.079295  0.095386  -0.495986  -0.280571  0.061008  3.55964  0.079
N  N122  1  0.96052864  0.34897287  0.06017272  1  -1.079377  0.09544  -0.495973  -0.28056  0.061009  3.55956  0.079
N  N123  1  0.65102795  0.61155562  0.06017181  1  -1.091226  0.095409  -0.496009  -0.280567  0.061009  3.559584  0.079
N  N124  1  0.65102430  0.03946634  0.56017274  1  -1.079609  0.095443  -0.49591  -0.280437  0.061011  3.559479  0.079
N  N125  1  0.38844129  0.34897621  0.56017313  1  -1.091273  0.095406  -0.495859  -0.280422  0.061009  3.559534  0.079
N  N126  1  0.96053413  0.61155841  0.56017259  1  -1.079273  0.095386  -0.495892  -0.280387  0.061009  3.559503  0.079
N  N127  1  0.61155658  0.96052918  0.93982858  1  -1.079298  0.095387  -0.49601  -0.280513  0.061009  3.559646  0.079
N  N128  1  0.03947108  0.65102764  0.93982855  1  -1.079097  0.095441  -0.496021  -0.280538  0.061009  3.559546  0.079
N  N129  1  0.34897201  0.38844168  0.93983012  1  -1.091482  0.095412  -0.495992  -0.280554  0.061012  3.55974  0.079
O  O130  1  0.35674750  0.81381408  0.55712623  1  -1.187858  -0.001084  -0.384355  -0.625587  -0.001518  2.307373  0.0
O  O131  1  0.18528476  0.75910790  0.61869500  1  -1.203642  0.001211  -0.325934  -0.581965  0.000496  2.151955  0.001
O  O132  1  0.52459946  0.92305082  0.39699486  1  -1.118343  0.085681  -0.316524  -0.517509  0.054158  2.294257  0.078
O  O133  1  0.43926206  0.82171563  0.27436692  1  -1.211101  0.013358  -0.393461  -0.617789  0.008141  2.272953  0.011
O  O134  1  0.45706575  0.64325195  0.55712670  1  -1.202047  -0.001082  -0.384345  -0.625537  -0.001518  2.307343  0.0
O  O135  1  0.57382403  0.81471566  0.61869467  1  -1.196298  0.001209  -0.325904  -0.581945  0.000497  2.151955  0.001
O  O136  1  0.39845171  0.47539878  0.39699029  1  -1.113587  0.085695  -0.316553  -0.517537  0.054159  2.294361  0.078
O  O137  1  0.38245183  0.56073456  0.27436338  1  -1.210865  0.01336  -0.393426  -0.617724  0.008141  2.272926  0.011
O  O138  1  0.18617382  0.54292978  0.55713595  1  -1.186616  -0.001081  -0.38421  -0.625482  -0.001517  2.307447  0.0
O  O139  1  0.24089344  0.42617749  0.61869442  1  -1.201979  0.001209  -0.3259  -0.581887  0.000496  2.152028  0.001
O  O140  1  0.07694954  0.60154998  0.39699033  1  -1.116257  0.085704  -0.316518  -0.517533  0.054157  2.294313  0.078
O  O141  1  0.17828749  0.61755102  0.27436369  1  -1.21355  0.01336  -0.393502  -0.617823  0.008141  2.272913  0.011
O  O142  1  0.54292582  0.18616502  0.94285059  1  -1.186537  -0.00108  -0.384091  -0.625337  -0.001517  2.307662  0.0
O  O143  1  0.42617798  0.24089682  0.88130556  1  -1.202102  0.001209  -0.325912  -0.581833  0.000496  2.152133  0.001
O  O144  1  0.60154596  0.07694677  0.10301148  1  -1.115907  0.0857  -0.316501  -0.517558  0.054155  2.29437  0.078
O  O145  1  0.61754173  0.17828202  0.22563868  1  -1.213474  0.013362  -0.393463  -0.617828  0.008142  2.272718  0.011
O  O146  1  0.81383328  0.35676014  0.94285189  1  -1.18792  -0.001083  -0.384079  -0.625315  -0.001518  2.307623  0.0
O  O147  1  0.75910639  0.18528271  0.88130473  1  -1.20251  0.001211  -0.325923  -0.581798  0.000496  2.15205  0.001
O  O148  1  0.92305180  0.52459913  0.10301093  1  -1.118351  0.085675  -0.316502  -0.517552  0.054155  2.294395  0.078
O  O149  1  0.82171806  0.43925973  0.22563838  1  -1.210366  0.013361  -0.393459  -0.617858  0.008143  2.272719  0.011
O  O150  1  0.64324687  0.45706699  0.94286085  1  -1.202056  -0.001082  -0.384266  -0.625493  -0.001517  2.307407  0.0
O  O151  1  0.81471873  0.57382483  0.88130399  1  -1.195119  0.001208  -0.325944  -0.58188  0.000496  2.151929  0.001
O  O152  1  0.47540200  0.39845360  0.10301134  1  -1.113555  0.085694  -0.316504  -0.517542  0.054158  2.294322  0.078
O  O153  1  0.56074482  0.38246249  0.22563886  1  -1.210923  0.013362  -0.393497  -0.617833  0.008143  2.272791  0.011
O  O154  1  0.64325191  0.18618525  0.44287437  1  -1.187902  -0.001084  -0.384383  -0.62565  -0.001518  2.307406  0.0
O  O155  1  0.81471422  0.24089187  0.38130493  1  -1.203902  0.001211  -0.325899  -0.581894  0.000496  2.151949  0.001
O  O156  1  0.47540026  0.07694969  0.60300506  1  -1.118442  0.085678  -0.316538  -0.5175  0.054156  2.294225  0.078
O  O157  1  0.56073767  0.17828487  0.72563234  1  -1.211093  0.013358  -0.393453  -0.617769  0.008141  2.27295  0.011
O  O158  1  0.54293440  0.35674813  0.44287323  1  -1.20205  -0.001082  -0.384379  -0.625602  -0.001518  2.307389  0.0
O  O159  1  0.42617613  0.18528442  0.38130526  1  -1.196448  0.001209  -0.325879  -0.581851  0.000497  2.151903  0.001
O  O160  1  0.60154716  0.52460259  0.60301030  1  -1.113584  0.085695  -0.316537  -0.51751  0.054159  2.294348  0.078
O  O161  1  0.61754789  0.43926594  0.72563789  1  -1.210861  0.01336  -0.393445  -0.617742  0.008141  2.272914  0.011
O  O162  1  0.81382665  0.45707147  0.44286464  1  -1.186894  -0.001081  -0.384206  -0.625516  -0.001518  2.307532  0.0
O  O163  1  0.75910597  0.57382185  0.38130551  1  -1.201996  0.001209  -0.325889  -0.581873  0.000496  2.152032  0.001
O  O164  1  0.92305253  0.39845115  0.60300893  1  -1.116079  0.085706  -0.316533  -0.517516  0.054158  2.294248  0.078
O  O165  1  0.82171426  0.38244894  0.72563557  1  -1.213566  0.013359  -0.393472  -0.617733  0.008141  2.272926  0.011
O  O166  1  0.45707433  0.81383505  0.05714800  1  -1.186598  -0.00108  -0.3841  -0.625359  -0.001517  2.307686  0.0
O  O167  1  0.57382174  0.75910368  0.11869437  1  -1.202095  0.001209  -0.32592  -0.58183  0.000496  2.152062  0.001
O  O168  1  0.39845462  0.92305287  0.89698778  1  -1.116278  0.0857  -0.316507  -0.517583  0.054155  2.294351  0.078
O  O169  1  0.38245928  0.82171720  0.77436125  1  -1.213762  0.013362  -0.393478  -0.61785  0.008142  2.272728  0.011
O  O170  1  0.18616570  0.64323962  0.05714804  1  -1.187891  -0.001083  -0.384108  -0.625388  -0.001517  2.307658  0.0
O  O171  1  0.24089494  0.81471768  0.11869520  1  -1.202538  0.001211  -0.325948  -0.581838  0.000496  2.15207  0.001
O  O172  1  0.07694718  0.47540063  0.89698833  1  -1.118323  0.085676  -0.316494  -0.517574  0.054155  2.294402  0.078
O  O173  1  0.17828135  0.56073960  0.77436021  1  -1.210396  0.013361  -0.393459  -0.61785  0.008143  2.272656  0.011
O  O174  1  0.35675136  0.54293202  0.05713574  1  -1.202054  -0.001082  -0.384273  -0.62553  -0.001517  2.307384  0.0
O  O175  1  0.18528291  0.42617673  0.11869594  1  -1.195032  0.001208  -0.325952  -0.581919  0.000496  2.151873  0.001
O  O176  1  0.52459925  0.60154241  0.89698926  1  -1.113562  0.085688  -0.316491  -0.517575  0.054155  2.294465  0.078
O  O177  1  0.43926108  0.61754076  0.77436241  1  -1.210791  0.013362  -0.393444  -0.617853  0.008142  2.272712  0.011
