# generated using pymatgen
data_ZnH5C11N4Cl3O5
_symmetry_space_group_name_H-M   'P 1'
_cell_length_a   15.43894659
_cell_length_b   19.40076490
_cell_length_c   17.82900974
_cell_angle_alpha   88.92952393
_cell_angle_beta   87.89036280
_cell_angle_gamma   87.67571111
_symmetry_Int_Tables_number   1
_chemical_formula_structural   ZnH5C11N4Cl3O5
_chemical_formula_sum   'Zn8 H40 C88 N32 Cl24 O40'
_cell_volume   5331.47619289
_cell_formula_units_Z   8
loop_
 _symmetry_equiv_pos_site_id
 _symmetry_equiv_pos_as_xyz
  1  'x, y, z'
loop_
 _atom_site_type_symbol
 _atom_site_label
 _atom_site_symmetry_multiplicity
 _atom_site_fract_x
 _atom_site_fract_y
 _atom_site_fract_z
 _atom_site_occupancy
 _atom_site_pbe_bader_charge
 _atom_site_pbe_bader_spin_density
 _atom_site_pbe_cm5_charge
 _atom_site_pbe_ddec_charge
 _atom_site_pbe_ddec_spin_density
 _atom_site_pbe_ddec_sum_bond_order
 _atom_site_pbe_magmom
Zn  Zn0  1  0.97409167  0.93700354  0.41294227  1  1.202396  0  0.722773  0.663679  0  2.441625  0
Zn  Zn1  1  0.93452614  0.01640625  0.64265033  1  1.196548  0  0.745059  0.731174  0  2.247884  0
Zn  Zn2  1  0.50937803  0.57208309  0.92447146  1  1.193259  0  0.720593  0.679138  0  2.359427  0
Zn  Zn3  1  0.57442774  0.45775115  0.13629152  1  1.218234  0  0.728576  0.682484  0  2.414512  0
Zn  Zn4  1  0.81806674  0.02653053  0.49947049  1  1.193279  0  0.738606  0.677786  0  2.433475  0
Zn  Zn5  1  0.10044648  0.04674942  0.52193170  1  1.168909  0  0.770444  0.728429  0  2.365007  0
Zn  Zn6  1  0.40567262  0.45574603  0.02409926  1  1.20219  0  0.744818  0.689148  0  2.458459  0
Zn  Zn7  1  0.69661056  0.49391978  0.98086634  1  1.183924  0  0.778263  0.771579  0  2.17098  0
H  H8  1  0.73853204  0.17877590  0.50865674  1  0.646831  0  0.315078  0.360829  0  0.949056  0
H  H9  1  0.58489529  0.95627978  0.38391300  1  0.632888  0  0.345997  0.386745  0  0.855217  0
H  H10  1  0.82422549  0.22481073  0.40268222  1  0.637337  0  0.317079  0.359964  0  0.922221  0
H  H11  1  0.23214766  0.93420498  0.49951635  1  0.643323  0  0.28917  0.30857  0  1.04791  0
H  H12  1  0.74031959  0.70371237  0.03967820  1  0.604888  0  0.31006  0.35036  0  0.938198  0
H  H13  1  0.07335303  0.44924275  0.08446340  1  0.614402  0  0.342008  0.377919  0  0.856864  0
H  H14  1  0.14006116  0.58809150  0.86864102  1  0.611793  0  0.304277  0.337445  0  0.95926  0
H  H15  1  0.79139942  0.35665143  0.90383544  1  0.63913  0  0.308893  0.350526  0  0.96455  0
H  H16  1  0.15065098  0.10907616  0.24791059  1  0.629591  0  0.288789  0.325689  0  0.997478  0
H  H17  1  0.99203928  0.75375217  0.61633916  1  0.674004  0  0.29384  0.343941  0  0.990681  0
H  H18  1  0.58564769  0.10489623  0.72813407  1  0.62089  0  0.329844  0.371392  0  0.878029  0
H  H19  1  0.20491564  0.75550909  0.50291989  1  0.639992  0  0.312802  0.355044  0  0.979252  0
H  H20  1  0.34011889  0.86934772  0.30449109  1  0.642037  0  0.310955  0.363687  0  0.939042  0
H  H21  1  0.61066621  0.65698165  0.71988084  1  0.613716  0  0.302912  0.340476  0  0.950226  0
H  H22  1  0.53697896  0.23350275  0.23286647  1  0.612884  0  0.295458  0.33082  0  0.980587  0
H  H23  1  0.24608984  0.57338632  0.15350877  1  0.623079  0  0.324321  0.365047  0  0.901498  0
H  H24  1  0.79937116  0.36275973  0.77562881  1  0.636129  0  0.341779  0.386476  0  0.855948  0
H  H25  1  0.63085379  0.76313943  0.59461341  1  0.645828  0  0.329705  0.372584  0  0.880265  0
H  H26  1  0.50948942  0.09430317  0.32285920  1  0.637797  0  0.333772  0.379209  0  0.878624  0
H  H27  1  0.10923039  0.64765398  0.25435360  1  0.617216  0  0.33159  0.371696  0  0.885043  0
H  H28  1  0.84070981  0.22806234  0.69741366  1  0.614459  0  0.320213  0.363529  0  0.900853  0
H  H29  1  0.17696137  0.25035452  0.18588402  1  0.619882  0  0.329045  0.370365  0  0.886663  0
H  H30  1  0.40257402  0.98843684  0.32743369  1  0.65185  0  0.320814  0.369478  0  0.923982  0
H  H31  1  0.97290899  0.66284412  0.76120186  1  0.626589  0  0.311663  0.356605  0  0.935683  0
H  H32  1  0.46769300  0.19423220  0.83556030  1  0.636035  0  0.342342  0.383728  0  0.862944  0
H  H33  1  0.46939817  0.79314411  0.20503895  1  0.628742  0  0.318651  0.359297  0  0.916187  0
H  H34  1  0.74281494  0.71207559  0.35338998  1  0.585826  0  0.334407  0.365507  0  0.87362  0
H  H35  1  0.98735474  0.33461180  0.80630148  1  0.625268  0  0.29153  0.328224  0  0.987046  0
H  H36  1  0.12876748  0.69728060  0.58595565  1  0.627245  0  0.354351  0.388522  0  0.828748  0
H  H37  1  0.80912305  0.07947618  0.15377435  1  0.619622  0  0.337889  0.374671  0  0.86561  0
H  H38  1  0.23507442  0.24922532  0.82779508  1  0.591814  0  0.28601  0.325129  0  0.995652  0
H  H39  1  0.53894759  0.70318574  0.24247007  1  0.639284  0  0.297495  0.345679  0  0.97723  0
H  H40  1  0.68838815  0.16891407  0.18019994  1  0.636876  0  0.322715  0.360469  0  0.88669  0
H  H41  1  0.06921439  0.82248720  0.48158395  1  0.554861  0  0.301633  0.274023  0  1.029392  0
H  H42  1  0.32384745  0.68048503  0.60547164  1  0.616058  0  0.337758  0.371916  0  0.85898  0
H  H43  1  0.32349501  0.60578084  0.97184086  1  0.615618  0  0.303368  0.313689  0  1.038878  0
H  H44  1  0.50056307  0.26790888  0.94641878  1  0.654102  0  0.321195  0.367598  0  0.925254  0
H  H45  1  0.87212057  0.56980121  0.80755689  1  0.653977  0  0.313607  0.36857  0  0.939189  0
H  H46  1  0.32332165  0.33999859  0.03430949  1  0.63327  0  0.314528  0.341479  0  0.960102  0
H  H47  1  0.21012359  0.22514118  0.58324471  1  0.614223  0  0.318906  0.364217  0  0.912507  0
C  C48  1  0.96920745  0.07485259  0.33057889  1  0.600806  0  0.111969  0.202781  0  4.129516  0
C  C49  1  0.67632014  0.85497217  0.28750626  1  0.193295  0  -0.032169  -0.007169  0  4.089423  0
C  C50  1  0.88440925  0.17940618  0.26898474  1  0.100782  0  -0.019802  0.012573  0  4.026271  0
C  C51  1  0.18994290  0.81199694  0.68663344  1  0.203512  0  0.004741  0.06922  0  4.021999  0
C  C52  1  0.70432625  0.70493577  0.18976945  1  0.08342  0  -0.01402  0.016607  0  4.057632  0
C  C53  1  0.12002703  0.37632476  0.87302980  1  0.125892  0  -0.000146  0.050935  0  3.993641  0
C  C54  1  0.22437520  0.66342953  0.75872912  1  0.052627  0  -0.008653  0.040901  0  4.057353  0
C  C55  1  0.83082254  0.25668966  0.10897707  1  0.105385  0  -0.00355  0.053947  0  4.046722  0
C  C56  1  0.09267243  0.28705728  0.77352866  1  0.652648  0  0.061008  0.15149  0  4.104237  0
C  C57  1  0.68775247  0.78591796  0.29715069  1  0.454327  0  0.057616  0.153279  0  4.089582  0
C  C58  1  0.84836441  0.15750319  0.20517695  1  0.55858  0  0.054831  0.133504  0  4.115452  0
C  C59  1  0.06430653  0.90280497  0.68783276  1  0.60026  0  0.117152  0.211772  0  4.132609  0
C  C60  1  0.19408520  0.74831855  0.65632364  1  0.432671  0  0.04767  0.103785  0  4.103625  0
C  C61  1  0.65738181  0.73060513  0.24986855  1  0.571055  0  0.051597  0.125131  0  4.114405  0
C  C62  1  0.13851735  0.31587110  0.83618885  1  0.500082  0  0.04643  0.099749  0  4.099309  0
C  C63  1  0.23754548  0.68694253  0.68709864  1  0.544193  0  0.037233  0.096198  0  4.176015  0
C  C64  1  0.80348406  0.20052262  0.14891998  1  0.527382  0  0.035596  0.080719  0  4.12004  0
C  C65  1  0.73593905  0.13915152  0.60721354  1  1.105095  0  0.192445  0.393061  0  4.117404  0
C  C66  1  0.18002376  0.79923071  0.40803435  1  1.096454  0  0.212007  0.412897  0  4.063517  0
C  C67  1  0.28965088  0.00279262  0.37086507  1  1.041411  0  0.183573  0.36611  0  4.096891  0
C  C68  1  0.93864808  0.84017037  0.54490909  1  1.224156  0  0.184272  0.410343  0  4.160515  0
C  C69  1  0.38465208  0.60904847  0.06206584  1  1.014308  0  0.184502  0.380031  0  4.111546  0
C  C70  1  0.01645360  0.15160639  0.69474361  1  0.596868  0  0.110844  0.203449  0  4.115611  0
C  C71  1  0.53210939  0.36077957  0.93906195  1  1.061317  0  0.185954  0.375806  0  4.128339  0
C  C72  1  0.75546458  0.57735470  0.84322435  1  1.070617  0  0.188795  0.386289  0  4.11033  0
C  C73  1  0.39036015  0.33211657  0.12197472  1  1.126436  0  0.199142  0.41315  0  4.077062  0
C  C74  1  0.77503823  0.08850878  0.71333881  1  0.582284  0  0.106128  0.171372  0  4.205194  0
C  C75  1  0.12033204  0.85731169  0.31485333  1  0.585497  0  0.118898  0.200167  0  4.13937  0
C  C76  1  0.19402973  0.08868126  0.38610520  1  0.539456  0  0.097213  0.155606  0  4.173576  0
C  C77  1  0.82357671  0.89799598  0.59360930  1  0.453307  0  0.098215  0.183891  0  4.107701  0
C  C78  1  0.45738573  0.57679749  0.16081494  1  0.600455  0  0.118636  0.208929  0  4.133004  0
C  C79  1  0.57493534  0.43534417  0.85198461  1  0.571949  0  0.108118  0.186015  0  4.138563  0
C  C80  1  0.65050559  0.65750012  0.85051494  1  0.5695  0  0.103992  0.169135  0  4.153056  0
C  C81  1  0.81927086  0.89550105  0.32900379  1  0.669506  0  0.116024  0.214347  0  4.135729  0
C  C82  1  0.46087960  0.35094816  0.22416497  1  0.559665  0  0.094891  0.161706  0  4.168717  0
C  C83  1  0.10806192  0.17525383  0.60167368  1  1.095792  0  0.184134  0.374274  0  4.101655  0
C  C84  1  0.70849271  0.95440368  0.37995778  1  1.007187  0  0.187235  0.376872  0  4.105436  0
C  C85  1  0.88317885  0.13662317  0.40498656  1  1.03939  0  0.17898  0.365616  0  4.082054  0
C  C86  1  0.16136054  0.91299766  0.59366908  1  1.141166  0  0.196616  0.417382  0  4.101386  0
C  C87  1  0.70129895  0.61969479  0.08098605  1  1.10804  0  0.190898  0.39659  0  4.081594  0
C  C88  1  0.15031535  0.42728328  0.00317460  1  1.116965  0  0.179899  0.383288  0  4.137672  0
C  C89  1  0.26269893  0.57901520  0.86527814  1  1.063215  0  0.192014  0.389597  0  4.084032  0
C  C90  1  0.76911789  0.34878928  0.01108262  1  1.119822  0  0.198268  0.404621  0  4.064217  0
C  C91  1  0.91368500  0.13418744  0.32970841  1  0.072121  0  -0.056596  -0.209388  0  4.115786  0
C  C92  1  0.37426243  0.62605755  0.80622898  1  0.643457  0  0.117443  0.215893  0  4.105923  0
C  C93  1  0.14015088  0.87089838  0.65684897  1  0.110265  0  -0.058542  -0.214331  0  4.061502  0
C  C94  1  0.08492317  0.19562700  0.67553023  1  0.077122  0  -0.060673  -0.209891  0  4.124564  0
C  C95  1  0.72812211  0.90168518  0.32781136  1  0.110207  0  -0.063534  -0.229435  0  4.134885  0
C  C96  1  0.28311227  0.62160509  0.80231101  1  0.108411  0  -0.061647  -0.228513  0  4.112003  0
C  C97  1  0.77081615  0.30871564  0.07831166  1  0.094237  0  -0.050741  -0.199977  0  4.0395  0
C  C98  1  0.69548094  0.63791588  0.15747179  1  0.038492  0  -0.062393  -0.228243  0  4.123213  0
C  C99  1  0.17323771  0.40177055  0.93042305  1  0.122429  0  -0.058  -0.196638  0  4.067654  0
C  C100  1  0.72494720  0.14525751  0.68600584  1  0.013863  0  -0.05905  -0.228727  0  4.110357  0
C  C101  1  0.18912459  0.81000697  0.33026681  1  0.117037  0  -0.049348  -0.196464  0  4.046963  0
C  C102  1  0.26590447  0.06857841  0.33983884  1  0.097619  0  -0.054025  -0.200208  0  4.094175  0
C  C103  1  0.69989915  0.33788871  0.12050428  1  0.625965  0  0.120128  0.214168  0  4.098846  0
C  C104  1  0.86079868  0.83194514  0.59041574  1  0.135306  0  -0.045343  -0.158244  0  4.01262  0
C  C105  1  0.39012915  0.62246338  0.13833088  1  0.072266  0  -0.052097  -0.189947  0  4.08214  0
C  C106  1  0.57491969  0.36415630  0.86793108  1  0.097776  0  -0.052814  -0.19766  0  4.08777  0
C  C107  1  0.72812049  0.64060125  0.80887150  1  0.084971  0  -0.051184  -0.198439  0  4.052213  0
C  C108  1  0.41104407  0.30096869  0.19182506  1  0.036904  0  -0.050277  -0.183018  0  4.045397  0
C  C109  1  0.25779699  0.15989519  0.24121001  1  0.502905  0  0.048604  0.130136  0  4.126831  0
C  C110  1  0.88859826  0.72941328  0.67474209  1  0.518923  0  0.049281  0.137091  0  4.121173  0
C  C111  1  0.60364339  0.19457056  0.76778579  1  0.464266  0  0.052773  0.13674  0  4.153387  0
C  C112  1  0.32756651  0.77934390  0.25478841  1  0.487749  0  0.055431  0.145879  0  4.129984  0
C  C113  1  0.71225167  0.70772099  0.68948177  1  0.487069  0  0.042618  0.120261  0  4.116727  0
C  C114  1  0.68490857  0.57356758  0.19406770  1  0.644703  0  0.111989  0.212072  0  4.137792  0
C  C115  1  0.43262182  0.18392245  0.25275930  1  0.48839  0  0.044308  0.125341  0  4.121516  0
C  C116  1  0.25262810  0.65963121  0.20676349  1  0.463585  0  0.052018  0.126379  0  4.128797  0
C  C117  1  0.69667983  0.31154118  0.79134592  1  0.465336  0  0.054665  0.135634  0  4.06212  0
C  C118  1  0.74339896  0.75345417  0.63422986  1  0.551  0  0.054267  0.152916  0  4.109208  0
C  C119  1  0.39815053  0.12495174  0.28580839  1  0.459137  0  0.046179  0.140327  0  4.077499  0
C  C120  1  0.20505300  0.70595338  0.25313757  1  0.543192  0  0.061109  0.160616  0  4.090281  0
C  C121  1  0.73134297  0.26018681  0.74411343  1  0.48108  0  0.055876  0.143619  0  4.133558  0
C  C122  1  0.29002207  0.22248885  0.21470838  1  0.562405  0  0.065011  0.172154  0  4.081286  0
C  C123  1  0.85626215  0.68553629  0.73152962  1  0.466867  0  0.046127  0.138173  0  4.051794  0
C  C124  1  0.56826233  0.24695128  0.81340637  1  0.522828  0  0.057136  0.139929  0  4.068846  0
C  C125  1  0.26380231  0.40691433  0.92781865  1  0.568886  0  0.105951  0.189665  0  4.108786  0
C  C126  1  0.37486029  0.73237840  0.20891139  1  0.451854  0  0.052416  0.143192  0  4.048472  0
C  C127  1  0.83120999  0.77049753  0.63109471  1  -0.003092  0  -0.03741  -0.089937  0  4.054845  0
C  C128  1  0.30854537  0.11417263  0.28515022  1  0.054814  0  -0.047944  -0.105747  0  4.117551  0
C  C129  1  0.24177135  0.76639831  0.27784296  1  0.079745  0  -0.039457  -0.099516  0  4.078756  0
C  C130  1  0.68463739  0.20122521  0.73100221  1  0.119527  0  -0.047419  -0.114378  0  4.148775  0
C  C131  1  0.37813126  0.23603133  0.22107716  1  0.080495  0  -0.039119  -0.090718  0  4.080433  0
C  C132  1  0.76649545  0.67803660  0.74441924  1  0.056465  0  -0.04738  -0.102449  0  4.101615  0
C  C133  1  0.61272805  0.30759704  0.82375488  1  0.054986  0  -0.029433  -0.064793  0  4.082878  0
C  C134  1  0.33869172  0.67206040  0.18447012  1  0.105822  0  -0.039269  -0.093022  0  4.110944  0
C  C135  1  0.12936040  0.24186077  0.72225963  1  0.007506  0  -0.033533  -0.015311  0  4.011386  0
N  N136  1  0.97006073  0.04387547  0.39878354  1  -0.791073  0  -0.287115  -0.2913  0  3.551035  0
N  N137  1  0.11266407  0.83901953  0.43550557  1  -0.832407  0  -0.300817  -0.23477  0  3.558646  0
N  N138  1  0.23655208  0.98479312  0.42823283  1  -0.766585  0  -0.249126  -0.267403  0  3.300702  0
N  N139  1  0.94325208  0.90713875  0.52034906  1  -0.842105  0  -0.319237  -0.347713  0  3.441651  0
N  N140  1  0.44768369  0.55926115  0.03891304  1  -0.810153  0  -0.302106  -0.337779  0  3.368174  0
N  N141  1  0.51184309  0.42452172  0.96420571  1  -0.815139  0  -0.3057  -0.322198  0  3.574192  0
N  N142  1  0.69641834  0.55740136  0.89574904  1  -0.811689  0  -0.302219  -0.300311  0  3.593597  0
N  N143  1  0.42468787  0.39437085  0.11480881  1  -0.830164  0  -0.304363  -0.31113  0  3.522267  0
N  N144  1  0.81414602  0.05306303  0.65716663  1  -0.791681  0  -0.304861  -0.273343  0  3.667671  0
N  N145  1  0.07339149  0.87521792  0.37733867  1  -0.792459  0  -0.282365  -0.255475  0  3.502532  0
N  N146  1  0.17657551  0.03858830  0.43701278  1  -0.831071  0  -0.317862  -0.277068  0  3.747415  0
N  N147  1  0.04112891  0.95937450  0.64804100  1  -0.828342  0  -0.30269  -0.260087  0  3.627216  0
N  N148  1  0.87328203  0.94524968  0.55482474  1  -0.854976  0  -0.331649  -0.333781  0  3.60737  0
N  N149  1  0.49454189  0.54085089  0.10429663  1  -0.820555  0  -0.300538  -0.281797  0  3.481533  0
N  N150  1  0.54039931  0.47128657  0.91046042  1  -0.814118  0  -0.303701  -0.293842  0  3.658319  0
N  N151  1  0.62900306  0.60678292  0.89966682  1  -0.807481  0  -0.29392  -0.269639  0  3.579808  0
N  N152  1  0.47144743  0.40627994  0.17810719  1  -0.797347  0  -0.301755  -0.281175  0  3.553048  0
N  N153  1  0.05690735  0.12519349  0.57941145  1  -0.808288  0  -0.306996  -0.289307  0  3.530611  0
N  N154  1  0.78130808  0.97694110  0.40901947  1  -0.815979  0  -0.285632  -0.269086  0  3.441124  0
N  N155  1  0.91417937  0.08285489  0.44622311  1  -0.815399  0  -0.297653  -0.318206  0  3.441745  0
N  N156  1  0.10141635  0.96599758  0.58886885  1  -0.802159  0  -0.308854  -0.325871  0  3.543164  0
N  N157  1  0.68961995  0.55171560  0.07330594  1  -0.835392  0  -0.29517  -0.306408  0  3.485463  0
N  N158  1  0.99833570  0.11070781  0.63790177  1  -0.7985  0  -0.283303  -0.271819  0  3.484044  0
N  N159  1  0.21875520  0.44444530  0.04087271  1  -0.754648  0  -0.29743  -0.366666  0  3.168609  0
N  N160  1  0.33354285  0.56036716  0.90292590  1  -0.776921  0  -0.28349  -0.329057  0  3.335429  0
N  N161  1  0.70347845  0.39777642  0.01552653  1  -0.824281  0  -0.295682  -0.310668  0  3.501073  0
N  N162  1  0.85082272  0.93912042  0.37666825  1  -0.795992  0  -0.289475  -0.242289  0  3.539128  0
N  N163  1  0.40369045  0.59024275  0.86569310  1  -0.826649  0  -0.29355  -0.262908  0  3.592534  0
N  N164  1  0.65896303  0.38925376  0.08396485  1  -0.791209  0  -0.281872  -0.233331  0  3.532533  0
N  N165  1  0.67805716  0.52258521  0.14510027  1  -0.790904  0  -0.293517  -0.281491  0  3.476644  0
N  N166  1  0.29055982  0.43109103  0.99338144  1  -0.851394  0  -0.304019  -0.275765  0  3.6941  0
N  N167  1  0.78736381  0.08345629  0.59029263  1  -0.838114  0  -0.299068  -0.318452  0  3.53224  0
Cl  Cl168  1  0.02900469  0.04121136  0.25749622  1  -0.166585  0  0.057003  -0.009848  0  1.749413  0
Cl  Cl169  1  0.09685000  0.88558602  0.22696753  1  -0.168347  0  0.012223  -0.054114  0  1.626516  0
Cl  Cl170  1  0.13544872  0.16492588  0.38898588  1  -0.173323  0  0.035147  -0.014769  0  1.689196  0
Cl  Cl171  1  0.72810106  0.92196910  0.63858438  1  -0.179048  0  0.015159  -0.041215  0  1.644498  0
Cl  Cl172  1  0.48365966  0.56138603  0.25145577  1  -0.16766  0  0.048136  -0.014103  0  1.698591  0
Cl  Cl173  1  0.60393935  0.47611566  0.77000060  1  -0.17113  0  0.020141  -0.033361  0  1.581859  0
Cl  Cl174  1  0.59281810  0.73414111  0.85255691  1  -0.166598  0  0.016365  -0.04298  0  1.589507  0
Cl  Cl175  1  0.49705464  0.35102980  0.31377443  1  -0.198879  0  -0.01037  -0.07458  0  1.556475  0
Cl  Cl176  1  0.60783510  0.88794832  0.21811430  1  -0.24362  0  -0.045634  -0.114048  0  1.46989  0
Cl  Cl177  1  0.24400971  0.23552698  0.71004573  1  -0.261542  0  0.006324  -0.100585  0  1.565487  0
Cl  Cl178  1  0.24697225  0.82830115  0.76626810  1  -0.194883  0  -0.022956  -0.087815  0  1.513084  0
Cl  Cl179  1  0.00393096  0.87956093  0.76517640  1  -0.175581  0  0.017725  -0.045758  0  1.523457  0
Cl  Cl180  1  0.88352000  0.26730262  0.28888317  1  -0.217745  0  -0.004294  -0.092203  0  1.604493  0
Cl  Cl181  1  0.02679269  0.42780704  0.85374602  1  -0.222668  0  0.007216  -0.062141  0  1.543748  0
Cl  Cl182  1  0.78497092  0.75494274  0.14603389  1  -0.221996  0  -0.007982  -0.092787  0  1.578254  0
Cl  Cl183  1  0.93997288  0.27416720  0.10243019  1  -0.184358  0  -0.012639  -0.058578  0  1.503446  0
Cl  Cl184  1  0.12916808  0.69232122  0.80845245  1  -0.231484  0  0.013228  -0.083302  0  1.639544  0
Cl  Cl185  1  0.96413633  0.14421200  0.77983074  1  -0.174356  0  0.028327  -0.039657  0  1.654248  0
Cl  Cl186  1  0.88795251  0.84146434  0.27956634  1  -0.177238  0  0.021262  -0.050792  0  1.691194  0
Cl  Cl187  1  0.44108521  0.67130405  0.74775588  1  -0.174511  0  0.023226  -0.053222  0  1.718626  0
Cl  Cl188  1  0.66990498  0.31855916  0.21102246  1  -0.192524  0  0.034424  -0.061703  0  1.772864  0
Cl  Cl189  1  0.69007278  0.55530639  0.28753975  1  -0.172065  0  0.005929  -0.058137  0  1.562042  0
Cl  Cl190  1  0.33537445  0.39041808  0.85475281  1  -0.185266  0  0.013525  -0.045335  0  1.6265  0
Cl  Cl191  1  0.78400956  0.06182869  0.80417203  1  -0.167223  0  0.013907  -0.047469  0  1.562632  0
O  O192  1  0.70089896  0.18090917  0.55477993  1  -1.160292  0  -0.349428  -0.440452  0  2.252205  0
O  O193  1  0.63088453  0.98351264  0.40279157  1  -1.143622  0  -0.347417  -0.45794  0  2.241315  0
O  O194  1  0.82606884  0.18416468  0.43662969  1  -1.175369  0  -0.333458  -0.447672  0  2.326133  0
O  O195  1  0.23018540  0.90338927  0.54827411  1  -1.189747  0  -0.344751  -0.451335  0  2.353808  0
O  O196  1  0.71971287  0.66011485  0.02101716  1  -1.126342  0  -0.334242  -0.421176  0  2.336274  0
O  O197  1  0.06846581  0.43273195  0.03341112  1  -1.135519  0  -0.355324  -0.466906  0  2.258543  0
O  O198  1  0.18503498  0.55868302  0.89203631  1  -1.125578  0  -0.3344  -0.422477  0  2.334406  0
O  O199  1  0.82160859  0.34151637  0.95010174  1  -1.163137  0  -0.34753  -0.4535  0  2.308248  0
O  O200  1  0.17273885  0.15136281  0.22498555  1  -1.175989  0  -0.372835  -0.471904  0  2.42019  0
O  O201  1  0.97692411  0.73384504  0.66770133  1  -1.213652  0  -0.3784  -0.494372  0  2.398341  0
O  O202  1  0.55434845  0.13760449  0.76139959  1  -1.146527  0  -0.364064  -0.453616  0  2.278101  0
O  O203  1  0.22741407  0.75566832  0.44965625  1  -1.155745  0  -0.344836  -0.44511  0  2.282658  0
O  O204  1  0.37291738  0.83538042  0.27337754  1  -1.165655  0  -0.370277  -0.471629  0  2.370074  0
O  O205  1  0.62561374  0.69424334  0.68476797  1  -1.157031  0  -0.375381  -0.468698  0  2.389409  0
O  O206  1  0.52178439  0.18870521  0.25470887  1  -1.154915  0  -0.382909  -0.478566  0  2.3311  0
O  O207  1  0.20974458  0.60197940  0.18763001  1  -1.148871  0  -0.365299  -0.458922  0  2.302179  0
O  O208  1  0.74823711  0.36531102  0.80984025  1  -1.141454  0  -0.342336  -0.443043  0  2.357899  0
O  O209  1  0.68796433  0.78121581  0.58246761  1  -1.145853  0  -0.359433  -0.429729  0  2.296437  0
O  O210  1  0.45102647  0.07680233  0.32311524  1  -1.15629  0  -0.35698  -0.462946  0  2.314648  0
O  O211  1  0.12183897  0.69180641  0.27628186  1  -1.121729  0  -0.361456  -0.434678  0  2.258928  0
O  O212  1  0.81283117  0.27144009  0.71424114  1  -1.139979  0  -0.360048  -0.443709  0  2.322608  0
O  O213  1  0.23366675  0.27113337  0.18585020  1  -1.115272  0  -0.350144  -0.41595  0  2.294585  0
O  O214  1  0.35650668  0.95924600  0.34866608  1  -1.18064  0  -0.345309  -0.464861  0  2.319051  0
O  O215  1  0.91421102  0.65017953  0.77785323  1  -1.149387  0  -0.355988  -0.450613  0  2.332988  0
O  O216  1  0.48797414  0.23927864  0.84921555  1  -1.13608  0  -0.341946  -0.438806  0  2.320126  0
O  O217  1  0.45997888  0.74625310  0.18777746  1  -1.139839  0  -0.350374  -0.434295  0  2.334046  0
O  O218  1  0.73270360  0.76179875  0.35815937  1  -1.067795  0  -0.338014  -0.399242  0  2.280489  0
O  O219  1  0.00564668  0.30079681  0.76788215  1  -1.136112  0  -0.35633  -0.423657  0  2.382198  0
O  O220  1  0.15767394  0.74113183  0.58652141  1  -1.127168  0  -0.334305  -0.423748  0  2.415441  0
O  O221  1  0.84077142  0.08737816  0.19905879  1  -1.104793  0  -0.349912  -0.41927  0  2.297084  0
O  O222  1  0.20279901  0.27456159  0.86748398  1  -1.102622  0  -0.366376  -0.426475  0  2.35149  0
O  O223  1  0.58599854  0.69850273  0.27926777  1  -1.146451  0  -0.378979  -0.467651  0  2.366481  0
O  O224  1  0.72181583  0.17709537  0.13338684  1  -1.134279  0  -0.362639  -0.440756  0  2.28108  0
O  O225  1  0.99739546  0.79243261  0.53041953  1  -1.195571  0  -0.336888  -0.526308  0  2.23422  0
O  O226  1  0.29380638  0.64922086  0.64012484  1  -1.111365  0  -0.356172  -0.425754  0  2.292338  0
O  O227  1  0.32751718  0.63819772  0.01719406  1  -1.161881  0  -0.339133  -0.420082  0  2.30837  0
O  O228  1  0.51286616  0.30510820  0.98114883  1  -1.166294  0  -0.341688  -0.436915  0  2.311162  0
O  O229  1  0.82835443  0.53864287  0.83039404  1  -1.170934  0  -0.35512  -0.462662  0  2.273987  0
O  O230  1  0.34477492  0.30360171  0.06931812  1  -1.162542  0  -0.338872  -0.425596  0  2.328965  0
O  O231  1  0.17218802  0.19682606  0.55482450  1  -1.135623  0  -0.341542  -0.446029  0  2.328878  0
