# generated using pymatgen
data_MgH(CO)5
_symmetry_space_group_name_H-M   'P 1'
_cell_length_a   6.88778117
_cell_length_b   15.19458980
_cell_length_c   15.19121497
_cell_angle_alpha   117.75410165
_cell_angle_beta   98.69403279
_cell_angle_gamma   98.69118678
_symmetry_Int_Tables_number   1
_chemical_formula_structural   MgH(CO)5
_chemical_formula_sum   'Mg6 H6 C30 O30'
_cell_volume   1345.47121554
_cell_formula_units_Z   6
loop_
 _symmetry_equiv_pos_site_id
 _symmetry_equiv_pos_as_xyz
  1  'x, y, z'
loop_
 _atom_site_type_symbol
 _atom_site_label
 _atom_site_symmetry_multiplicity
 _atom_site_fract_x
 _atom_site_fract_y
 _atom_site_fract_z
 _atom_site_occupancy
 _atom_site_hle17_bader_spin_density
 _atom_site_hle17_ddec_charge
 _atom_site_hle17_ddec_spin_density
 _atom_site_hle17_ddec_sum_bond_order
 _atom_site_hle17_magmom
 _atom_site_hse06_10hf_bader_spin_density
 _atom_site_hse06_10hf_ddec_charge
 _atom_site_hse06_10hf_ddec_spin_density
 _atom_site_hse06_10hf_ddec_sum_bond_order
 _atom_site_hse06_10hf_magmom
 _atom_site_hse06_bader_spin_density
 _atom_site_hse06_ddec_charge
 _atom_site_hse06_ddec_spin_density
 _atom_site_hse06_ddec_sum_bond_order
 _atom_site_hse06_magmom
 _atom_site_pbe_bader_spin_density
 _atom_site_pbe_cm5_charge
 _atom_site_pbe_ddec_charge
 _atom_site_pbe_ddec_spin_density
 _atom_site_pbe_ddec_sum_bond_order
 _atom_site_pbe_magmom
Mg  Mg0  1  0.47394302  0.26652687  0.58951776  1  0  1.507499  0  1.145524  0  0  1.393927  0  1.403477  0  0  1.418908  0  1.365351  0  0  0.844912  1.376176  0  1.430213  0
Mg  Mg1  1  0.20739562  0.32297384  0.73343608  1  0  1.507311  0  1.146106  0  0  1.394779  0  1.402579  0  0  1.419615  0  1.364705  0  0  0.845271  1.377376  0  1.428633  0
Mg  Mg2  1  0.88438127  0.41040955  0.67696387  1  0  1.506949  0  1.146122  0  0  1.394202  0  1.402208  0  0  1.419313  0  1.363883  0  0  0.845144  1.376431  0  1.428935  0
Mg  Mg3  1  0.52605801  0.73347314  0.41048263  1  0  1.5075  0  1.145535  0  0  1.393946  0  1.40346  0  0  1.418923  0  1.365343  0  0  0.844901  1.376194  0  1.43018  0
Mg  Mg4  1  0.79260471  0.67702771  0.26656432  1  0  1.50728  0  1.146164  0  0  1.394751  0  1.402606  0  0  1.419588  0  1.36473  0  0  0.845231  1.377328  0  1.428703  0
Mg  Mg5  1  0.11561977  0.58959045  0.32303587  1  0  1.506958  0  1.146124  0  0  1.394181  0  1.402255  0  0  1.419284  0  1.363938  0  0  0.845141  1.376411  0  1.429  0
H  H6  1  0.81249756  0.44411229  0.46612436  1  0  0.129241  0  0.942796  0  0  0.136646  0  1.006256  0  0  0.141205  0  1.002626  0  0  0.106861  0.133374  0  1.008942  0
H  H7  1  0.36836151  0.02195540  0.55596563  1  0  0.128725  0  0.942068  0  0  0.136564  0  1.005188  0  0  0.141226  0  1.00147  0  0  0.106695  0.133216  0  1.007946  0
H  H8  1  0.34636030  0.53393074  0.97797758  1  0  0.128689  0  0.941966  0  0  0.13624  0  1.005405  0  0  0.140891  0  1.001687  0  0  0.106668  0.132897  0  1.008166  0
H  H9  1  0.18750347  0.55588772  0.53387604  1  0  0.129232  0  0.942804  0  0  0.136636  0  1.006265  0  0  0.141196  0  1.002634  0  0  0.106856  0.133362  0  1.008951  0
H  H10  1  0.63164175  0.97804614  0.44403695  1  0  0.128763  0  0.942111  0  0  0.136581  0  1.005249  0  0  0.141244  0  1.00153  0  0  0.10672  0.133233  0  1.008009  0
H  H11  1  0.65364073  0.46606927  0.02202215  1  0  0.128693  0  0.941934  0  0  0.13624  0  1.005403  0  0  0.140889  0  1.001685  0  0  0.106659  0.132894  0  1.00816  0
C  C12  1  0.25625907  0.43628698  0.61004152  1  0  0.750811  0  3.798462  0  0  0.697692  0  4.091361  0  0  0.734111  0  4.076578  0  0  0.237219  0.672971  0  4.100866  0
C  C13  1  0.82002303  0.17374254  0.56361599  1  0  0.750724  0  3.796777  0  0  0.698259  0  4.089232  0  0  0.734748  0  4.074307  0  0  0.237268  0.673499  0  4.098812  0
C  C14  1  0.64621180  0.38988169  0.82624169  1  0  0.752022  0  3.797755  0  0  0.698035  0  4.091654  0  0  0.734563  0  4.076756  0  0  0.237309  0.673251  0  4.101231  0
C  C15  1  0.74374235  0.56371380  0.38995925  1  0  0.750942  0  3.798348  0  0  0.697801  0  4.09128  0  0  0.734219  0  4.076497  0  0  0.237213  0.673089  0  4.100771  0
C  C16  1  0.17997877  0.82625901  0.43638583  1  0  0.750666  0  3.796824  0  0  0.69822  0  4.089253  0  0  0.734712  0  4.074331  0  0  0.237231  0.673466  0  4.098822  0
C  C17  1  0.35378815  0.61011908  0.17375832  1  0  0.751982  0  3.797723  0  0  0.69797  0  4.09169  0  0  0.7345  0  4.076794  0  0  0.23726  0.673172  0  4.101288  0
C  C18  1  0.38480376  0.46600065  0.55305741  1  0  -0.187181  0  3.737324  0  0  -0.174137  0  3.988718  0  0  -0.18375  0  4.010725  0  0  -0.038347  -0.167602  0  3.973728  0
C  C19  1  0.91887018  0.08704792  0.53392222  1  0  -0.187695  0  3.736455  0  0  -0.175781  0  3.989028  0  0  -0.185463  0  4.011091  0  0  -0.038601  -0.16921  0  3.974002  0
C  C20  1  0.83178600  0.44687666  0.91294045  1  0  -0.189252  0  3.739812  0  0  -0.174544  0  3.99096  0  0  -0.184305  0  4.013104  0  0  -0.038273  -0.167912  0  3.975857  0
C  C21  1  0.61519765  0.53400013  0.44694403  1  0  -0.187263  0  3.737331  0  0  -0.174223  0  3.988749  0  0  -0.183834  0  4.010754  0  0  -0.03837  -0.167684  0  3.973747  0
C  C22  1  0.08113162  0.91295362  0.46607960  1  0  -0.187705  0  3.736483  0  0  -0.17582  0  3.989077  0  0  -0.185504  0  4.011141  0  0  -0.038591  -0.169249  0  3.974042  0
C  C23  1  0.16821248  0.55312411  0.08705947  1  0  -0.188757  0  3.740305  0  0  -0.174534  0  3.99096  0  0  -0.184296  0  4.013107  0  0  -0.038299  -0.167908  0  3.975875  0
C  C24  1  0.56545574  0.43238868  0.53365366  1  0  0.346455  0  3.885173  0  0  0.324419  0  4.160768  0  0  0.335905  0  4.178052  0  0  0.07088  0.316391  0  4.148907  0
C  C25  1  0.13310516  0.10125036  0.56759431  1  0  0.347927  0  3.88431  0  0  0.326666  0  4.159284  0  0  0.338168  0  4.176573  0  0  0.071845  0.318641  0  4.147416  0
C  C26  1  0.03180103  0.46632151  0.89872776  1  0  0.349818  0  3.882064  0  0  0.325528  0  4.160665  0  0  0.33706  0  4.177947  0  0  0.071454  0.317465  0  4.14884  0
C  C27  1  0.43454421  0.56761210  0.46634702  1  0  0.346429  0  3.885154  0  0  0.324396  0  4.160745  0  0  0.33588  0  4.178031  0  0  0.070865  0.316372  0  4.148876  0
C  C28  1  0.86689811  0.89875118  0.43240827  1  0  0.347871  0  3.884358  0  0  0.326629  0  4.159318  0  0  0.338131  0  4.17661  0  0  0.07183  0.318607  0  4.147444  0
C  C29  1  0.96819930  0.53368003  0.10127264  1  0  0.348187  0  3.884453  0  0  0.325515  0  4.16072  0  0  0.337045  0  4.178007  0  0  0.071461  0.317455  0  4.148892  0
C  C30  1  0.67459221  0.46860348  0.48117088  1  0  -0.191966  0  3.727663  0  0  -0.226618  0  3.993815  0  0  -0.229609  0  4.012575  0  0  -0.110868  -0.224428  0  3.981106  0
C  C31  1  0.20596816  0.01255284  0.53145068  1  0  -0.191214  0  3.727091  0  0  -0.226156  0  3.99345  0  0  -0.229249  0  4.012256  0  0  -0.110569  -0.223879  0  3.980689  0
C  C32  1  0.19339529  0.51887628  0.98742697  1  0  -0.191867  0  3.727337  0  0  -0.226259  0  3.993701  0  0  -0.229284  0  4.012478  0  0  -0.110903  -0.224053  0  3.981021  0
C  C33  1  0.32540773  0.53139730  0.51882979  1  0  -0.191977  0  3.727652  0  0  -0.226634  0  3.99381  0  0  -0.229625  0  4.01257  0  0  -0.110871  -0.224445  0  3.981102  0
C  C34  1  0.79403364  0.98744871  0.46855114  1  0  -0.191216  0  3.727147  0  0  -0.226156  0  3.993495  0  0  -0.229249  0  4.012299  0  0  -0.110539  -0.22388  0  3.980741  0
C  C35  1  0.80660466  0.48112450  0.01257305  1  0  -0.191378  0  3.727917  0  0  -0.226271  0  3.993707  0  0  -0.229294  0  4.012483  0  0  -0.110915  -0.224062  0  3.981014  0
C  C36  1  0.21361548  0.09428720  0.35952204  1  0  0.84915  0  3.742781  0  0  0.781783  0  4.056554  0  0  0.82573  0  4.041905  0  0  0.400559  0.75179  0  4.066355  0
C  C37  1  0.11918564  0.26531229  0.90567742  1  0  0.851232  0  3.741059  0  0  0.783961  0  4.05474  0  0  0.827872  0  4.040037  0  0  0.402224  0.754  0  4.064601  0
C  C38  1  0.85403099  0.64024467  0.73470613  1  0  0.851858  0  3.740537  0  0  0.784252  0  4.054467  0  0  0.82821  0  4.039741  0  0  0.401852  0.754265  0  4.064327  0
C  C39  1  0.78637961  0.90570973  0.64047783  1  0  0.849284  0  3.742786  0  0  0.781937  0  4.056536  0  0  0.825885  0  4.041885  0  0  0.400651  0.751942  0  4.066338  0
C  C40  1  0.88081277  0.73468541  0.09431843  1  0  0.85141  0  3.740932  0  0  0.784099  0  4.054611  0  0  0.82801  0  4.039907  0  0  0.40221  0.754135  0  4.064477  0
C  C41  1  0.14597087  0.35975995  0.26529515  1  0  0.851902  0  3.740489  0  0  0.784267  0  4.054432  0  0  0.828222  0  4.039703  0  0  0.401749  0.75428  0  4.064293  0
O  O42  1  0.30874187  0.37621130  0.64206159  1  0  -0.817671  0  2.162455  0  0  -0.747485  0  2.402986  0  0  -0.76909  0  2.385547  0  0  -0.385934  -0.732659  0  2.414682  0
O  O43  1  0.93255905  0.26582442  0.62367622  1  0  -0.81723  0  2.1621  0  0  -0.74746  0  2.402763  0  0  -0.769279  0  2.385545  0  0  -0.385615  -0.732468  0  2.414283  0
O  O44  1  0.66663160  0.35787507  0.73413240  1  0  -0.817495  0  2.162415  0  0  -0.747266  0  2.403803  0  0  -0.768949  0  2.386351  0  0  -0.385552  -0.732295  0  2.415387  0
O  O45  1  0.69125955  0.62378948  0.35793853  1  0  -0.817731  0  2.162461  0  0  -0.747536  0  2.402993  0  0  -0.769143  0  2.385556  0  0  -0.385925  -0.73271  0  2.414685  0
O  O46  1  0.06744236  0.73417636  0.37632455  1  0  -0.817169  0  2.16205  0  0  -0.747428  0  2.402744  0  0  -0.769238  0  2.385508  0  0  -0.385594  -0.732444  0  2.414274  0
O  O47  1  0.33336688  0.64212570  0.26586752  1  0  -0.817469  0  2.162434  0  0  -0.747255  0  2.403872  0  0  -0.768935  0  2.38641  0  0  -0.385512  -0.732268  0  2.415438  0
O  O48  1  0.09930923  0.46972909  0.62636118  1  0  -0.710838  0  1.948481  0  0  -0.658663  0  2.183917  0  0  -0.680719  0  2.169331  0  0  -0.353684  -0.643471  0  2.193603  0
O  O49  1  0.62963970  0.15662843  0.53016508  1  0  -0.710961  0  1.94857  0  0  -0.658607  0  2.183516  0  0  -0.680691  0  2.168969  0  0  -0.353654  -0.643391  0  2.193173  0
O  O50  1  0.47293336  0.37353208  0.84335108  1  0  -0.711523  0  1.947739  0  0  -0.659109  0  2.183326  0  0  -0.681143  0  2.16874  0  0  -0.354095  -0.643993  0  2.193007  0
O  O51  1  0.90069257  0.53027245  0.37363998  1  0  -0.710859  0  1.948409  0  0  -0.658669  0  2.183854  0  0  -0.680724  0  2.16927  0  0  -0.353647  -0.643486  0  2.193544  0
O  O52  1  0.37036133  0.84337157  0.46983466  1  0  -0.710934  0  1.94863  0  0  -0.658579  0  2.183552  0  0  -0.680663  0  2.169003  0  0  -0.353648  -0.643367  0  2.193204  0
O  O53  1  0.52706551  0.62646946  0.15664922  1  0  -0.711495  0  1.947705  0  0  -0.659084  0  2.18331  0  0  -0.681118  0  2.168725  0  0  -0.35408  -0.643959  0  2.192993  0
O  O54  1  0.63605021  0.36998917  0.56292781  1  0  -0.865392  0  2.118846  0  0  -0.797111  0  2.366306  0  0  -0.818702  0  2.355969  0  0  -0.458979  -0.78147  0  2.372856  0
O  O55  1  0.26614014  0.19291119  0.62997026  1  0  -0.86677  0  2.118758  0  0  -0.798685  0  2.365786  0  0  -0.820256  0  2.355492  0  0  -0.459602  -0.783107  0  2.37232  0
O  O56  1  0.07312161  0.43698558  0.80702916  1  0  -0.866984  0  2.11619  0  0  -0.798489  0  2.364959  0  0  -0.819927  0  2.354442  0  0  -0.459859  -0.783019  0  2.371646  0
O  O57  1  0.36394935  0.63001084  0.43707182  1  0  -0.865381  0  2.118845  0  0  -0.797091  0  2.366296  0  0  -0.818683  0  2.355963  0  0  -0.458976  -0.781448  0  2.372838  0
O  O58  1  0.73386128  0.80708959  0.37003052  1  0  -0.866739  0  2.118765  0  0  -0.798649  0  2.365762  0  0  -0.820221  0  2.355469  0  0  -0.459599  -0.78307  0  2.372296  0
O  O59  1  0.92687911  0.56301674  0.19297163  1  0  -0.866428  0  2.116915  0  0  -0.798477  0  2.365019  0  0  -0.819911  0  2.354499  0  0  -0.459849  -0.783005  0  2.371708  0
O  O60  1  0.16158163  0.00875648  0.29255359  1  0  -0.376712  0  1.947973  0  0  -0.342973  0  2.126619  0  0  -0.364496  0  2.118636  0  0  -0.156333  -0.328461  0  2.13196  0
O  O61  1  0.15282034  0.28393479  0.99124627  1  0  -0.377565  0  1.946917  0  0  -0.343952  0  2.125606  0  0  -0.365472  0  2.117616  0  0  -0.15692  -0.329447  0  2.130951  0
O  O62  1  0.86915917  0.70722360  0.71616338  1  0  -0.377668  0  1.946438  0  0  -0.343937  0  2.125213  0  0  -0.365441  0  2.11718  0  0  -0.156635  -0.329455  0  2.130587  0
O  O63  1  0.83841038  0.99123430  0.70744188  1  0  -0.376679  0  1.948338  0  0  -0.342939  0  2.126967  0  0  -0.36446  0  2.118983  0  0  -0.156284  -0.328441  0  2.13231  0
O  O64  1  0.84717506  0.71605984  0.00874465  1  0  -0.377644  0  1.94651  0  0  -0.344033  0  2.125216  0  0  -0.365554  0  2.117226  0  0  -0.156912  -0.329521  0  2.130562  0
O  O65  1  0.13084147  0.29277564  0.28384189  1  0  -0.377863  0  1.946178  0  0  -0.344137  0  2.124961  0  0  -0.365647  0  2.116931  0  0  -0.156741  -0.329647  0  2.130334  0
O  O66  1  0.26457307  0.18167584  0.42444322  1  0  -0.433006  0  2.048428  0  0  -0.38755  0  2.256171  0  0  -0.409556  0  2.244558  0  0  -0.156514  -0.372741  0  2.264025  0
O  O67  1  0.08260484  0.24278384  0.81825249  1  0  -0.434352  0  2.048226  0  0  -0.388895  0  2.255862  0  0  -0.410819  0  2.244196  0  0  -0.157623  -0.374205  0  2.263742  0
O  O68  1  0.83985326  0.57530377  0.75716424  1  0  -0.43498  0  2.048531  0  0  -0.389208  0  2.256118  0  0  -0.411256  0  2.244498  0  0  -0.157584  -0.374408  0  2.263985  0
O  O69  1  0.73542041  0.81831495  0.57555105  1  0  -0.433162  0  2.048118  0  0  -0.387743  0  2.255881  0  0  -0.409751  0  2.244264  0  0  -0.15665  -0.372935  0  2.263731  0
O  O70  1  0.91739434  0.75721540  0.18173952  1  0  -0.43448  0  2.048495  0  0  -0.388952  0  2.256095  0  0  -0.410877  0  2.244426  0  0  -0.157608  -0.374254  0  2.263981  0
O  O71  1  0.16014585  0.42469239  0.24283686  1  0  -0.434858  0  2.04874  0  0  -0.389025  0  2.256302  0  0  -0.411066  0  2.244676  0  0  -0.157385  -0.374228  0  2.264173  0
