# generated using pymatgen
data_ZnH20C30NO4
_symmetry_space_group_name_H-M   'P 1'
_cell_length_a   15.15564517
_cell_length_b   15.75034353
_cell_length_c   15.93537172
_cell_angle_alpha   87.49080589
_cell_angle_beta   84.77381598
_cell_angle_gamma   61.24625363
_symmetry_Int_Tables_number   1
_chemical_formula_structural   ZnH20C30NO4
_chemical_formula_sum   'Zn4 H80 C120 N4 O16'
_cell_volume   3320.97922258
_cell_formula_units_Z   4
loop_
 _symmetry_equiv_pos_site_id
 _symmetry_equiv_pos_as_xyz
  1  'x, y, z'
loop_
 _atom_site_type_symbol
 _atom_site_label
 _atom_site_symmetry_multiplicity
 _atom_site_fract_x
 _atom_site_fract_y
 _atom_site_fract_z
 _atom_site_occupancy
 _atom_site_pbe_bader_charge
 _atom_site_pbe_bader_spin_density
 _atom_site_pbe_cm5_charge
 _atom_site_pbe_ddec_charge
 _atom_site_pbe_ddec_spin_density
 _atom_site_pbe_ddec_sum_bond_order
 _atom_site_pbe_magmom
Zn  Zn0  1  0.44384073  0.99143072  0.43539917  1  1.295597  0  0.669859  0.826895  0  2.402828  0
Zn  Zn1  1  0.56477583  0.99154953  0.06458936  1  1.293127  0  0.669915  0.827481  0  2.402033  0
Zn  Zn2  1  0.55615905  0.00856977  0.56460090  1  1.295657  0  0.66987  0.826929  0  2.402877  0
Zn  Zn3  1  0.43522339  0.00844806  0.93540774  1  1.293184  0  0.669952  0.827535  0  2.402067  0
H  H4  1  0.33365689  0.28132257  0.67730527  1  0.05485  0  0.102866  0.105446  0  1.015875  0
H  H5  1  0.18833439  0.43667866  0.72638168  1  0.049012  0  0.09773  0.095226  0  1.017872  0
H  H6  1  0.01538323  0.41744209  0.53435144  1  0.01554  0  0.097136  0.095434  0  1.023596  0
H  H7  1  0.16328519  0.26059208  0.48625157  1  0.078114  0  0.10167  0.101512  0  1.03301  0
H  H8  1  0.93389481  0.54916331  0.63072725  1  0.077793  0  0.101397  0.101937  0  1.007381  0
H  H9  1  0.07160746  0.57208878  0.74806942  1  0.051295  0  0.096273  0.087399  0  1.02107  0
H  H10  1  0.99500942  0.68016840  0.85801251  1  0.050137  0  0.096624  0.093665  0  1.015506  0
H  H11  1  0.84407649  0.81384833  0.93387168  1  0.111489  0  0.104959  0.11378  0  0.995825  0
H  H12  1  0.66323850  0.83162614  0.73430814  1  0.118379  0  0.107632  0.118536  0  1.015879  0
H  H13  1  0.81183500  0.69887021  0.65829821  1  0.051416  0  0.100668  0.102144  0  1.01423  0
H  H14  1  0.22976611  0.06235270  0.43957507  1  0.107223  0  0.115827  0.086233  0  1.026201  0
H  H15  1  0.10202701  0.06684591  0.34853169  1  0.081461  0  0.100018  0.103567  0  1.066106  0
H  H16  1  0.34887922  0.89762609  0.16556105  1  0.101065  0  0.108093  0.116741  0  1.019977  0
H  H17  1  0.46531528  0.90057972  0.26350214  1  0.132739  0  0.123138  0.09698  0  0.991286  0
H  H18  1  0.06357176  0.01243058  0.22632626  1  0.059538  0  0.100127  0.098543  0  1.021376  0
H  H19  1  0.22611806  0.95973436  0.07869053  1  0.085445  0  0.107098  0.106664  0  1.012351  0
H  H20  1  0.99253771  0.84693013  0.84819865  1  0.101164  0  0.096634  0.09485  0  1.062752  0
H  H21  1  0.15938498  0.70248737  0.84518124  1  0.039857  0  0.098006  0.09265  0  1.006845  0
H  H22  1  0.28615525  0.68877567  0.94199197  1  0.065555  0  0.097941  0.09512  0  1.024181  0
H  H23  1  0.24350750  0.81973851  0.04273760  1  0.073045  0  0.099693  0.097506  0  1.0365  0
H  H24  1  0.38488487  0.28141023  0.82254472  1  0.057937  0  0.102895  0.105476  0  1.015844  0
H  H25  1  0.37506631  0.43668289  0.77345554  1  0.036411  0  0.097703  0.09557  0  1.017788  0
H  H26  1  0.56718055  0.41730196  0.96559760  1  0.042735  0  0.097142  0.095487  0  1.023646  0
H  H27  1  0.57589978  0.26058609  0.01369888  1  0.108172  0  0.1015  0.101111  0  1.033226  0
H  H28  1  0.51706289  0.54909937  0.86929275  1  0.079158  0  0.10144  0.10204  0  1.007893  0
H  H29  1  0.35634308  0.57208184  0.75201765  1  0.050172  0  0.096246  0.087042  0  1.021193  0
H  H30  1  0.32468869  0.68024259  0.64211014  1  0.049369  0  0.096727  0.093736  0  1.015652  0
H  H31  1  0.34204686  0.81384848  0.56616937  1  0.106264  0  0.105087  0.114112  0  0.995766  0
H  H32  1  0.50519531  0.83162187  0.76568717  1  0.114102  0  0.107482  0.118334  0  1.015988  0
H  H33  1  0.48936710  0.69884384  0.84169854  1  0.046322  0  0.100645  0.102114  0  1.01406  0
H  H34  1  0.70799278  0.06250452  0.06046474  1  0.11088  0  0.115773  0.085951  0  1.026301  0
H  H35  1  0.83127261  0.06692265  0.15152684  1  0.064919  0  0.100082  0.103543  0  1.065494  0
H  H36  1  0.75364147  0.89758456  0.33436757  1  0.085357  0  0.107962  0.116519  0  1.020567  0
H  H37  1  0.63423159  0.90060417  0.23641921  1  0.137132  0  0.123156  0.097062  0  0.990917  0
H  H38  1  0.92418264  0.01239226  0.27369440  1  0.052358  0  0.100229  0.098492  0  1.021364  0
H  H39  1  0.81419472  0.95970924  0.42123645  1  0.0899  0  0.107212  0.106739  0  1.012016  0
H  H40  1  0.16056672  0.84686338  0.65174464  1  0.103667  0  0.096694  0.095013  0  1.062459  0
H  H41  1  0.13816145  0.70242805  0.65472437  1  0.07461  0  0.097998  0.092675  0  1.007062  0
H  H42  1  0.02503221  0.68873657  0.55796295  1  0.074344  0  0.097885  0.095161  0  1.023869  0
H  H43  1  0.93666495  0.81977828  0.45728075  1  0.068369  0  0.099759  0.097515  0  1.036715  0
H  H44  1  0.66634355  0.71867792  0.32269599  1  0.054881  0  0.102862  0.105423  0  1.015918  0
H  H45  1  0.81166605  0.56332183  0.27361958  1  0.049051  0  0.097734  0.095227  0  1.017929  0
H  H46  1  0.98461690  0.58255767  0.46564799  1  0.01556  0  0.097113  0.09541  0  1.023595  0
H  H47  1  0.83671531  0.73940696  0.51374912  1  0.077982  0  0.101658  0.101463  0  1.033048  0
H  H48  1  0.06610497  0.45083718  0.36927156  1  0.077786  0  0.101373  0.101897  0  1.00742  0
H  H49  1  0.92839201  0.42791098  0.25193195  1  0.051306  0  0.096282  0.087403  0  1.021042  0
H  H50  1  0.00499072  0.31983136  0.14198755  1  0.050108  0  0.096609  0.093684  0  1.015509  0
H  H51  1  0.15592232  0.18615144  0.06612725  1  0.111446  0  0.104974  0.113796  0  0.995789  0
H  H52  1  0.33676289  0.16837507  0.26569049  1  0.118366  0  0.107655  0.118565  0  1.015906  0
H  H53  1  0.18816471  0.30113173  0.34170242  1  0.05139  0  0.100647  0.102101  0  1.014249  0
H  H54  1  0.77023469  0.93764707  0.56042619  1  0.107236  0  0.115803  0.08622  0  1.026193  0
H  H55  1  0.89797350  0.93315313  0.65147089  1  0.081444  0  0.099999  0.103571  0  1.066138  0
H  H56  1  0.65112043  0.10237730  0.83443952  1  0.101079  0  0.108097  0.116774  0  1.019945  0
H  H57  1  0.53468334  0.09942439  0.73649786  1  0.132731  0  0.123143  0.096961  0  0.99126  0
H  H58  1  0.93642802  0.98756991  0.77367506  1  0.059535  0  0.100113  0.098541  0  1.02138  0
H  H59  1  0.77388509  0.04026468  0.92130993  1  0.085334  0  0.107074  0.106593  0  1.012324  0
H  H60  1  0.00746213  0.15306891  0.15180273  1  0.101565  0  0.096617  0.094838  0  1.06275  0
H  H61  1  0.84061486  0.29751167  0.15482013  1  0.039857  0  0.097977  0.092609  0  1.006876  0
H  H62  1  0.71384627  0.31122265  0.05800804  1  0.065545  0  0.097925  0.095092  0  1.024178  0
H  H63  1  0.75649439  0.18025908  0.95726240  1  0.073  0  0.099695  0.097525  0  1.036507  0
H  H64  1  0.61511358  0.71859026  0.17745421  1  0.05789  0  0.102891  0.105434  0  1.015889  0
H  H65  1  0.62493178  0.56331832  0.22654526  1  0.036435  0  0.097685  0.095536  0  1.017858  0
H  H66  1  0.43281827  0.58269780  0.03440321  1  0.0427  0  0.097142  0.095492  0  1.023639  0
H  H67  1  0.42409867  0.73941440  0.98630068  1  0.108146  0  0.101507  0.101118  0  1.03322  0
H  H68  1  0.48293724  0.45090039  0.13070731  1  0.079142  0  0.101444  0.10206  0  1.007874  0
H  H69  1  0.64365603  0.42791864  0.24798184  1  0.050189  0  0.096256  0.087074  0  1.021181  0
H  H70  1  0.67531271  0.31975863  0.35788849  1  0.049357  0  0.096726  0.093747  0  1.015647  0
H  H71  1  0.65795417  0.18615346  0.43383052  1  0.106251  0  0.105079  0.114102  0  0.99578  0
H  H72  1  0.49480519  0.16837717  0.23431415  1  0.114104  0  0.107506  0.118377  0  1.015926  0
H  H73  1  0.51063370  0.30115593  0.15830146  1  0.046338  0  0.100636  0.102107  0  1.014042  0
H  H74  1  0.29200555  0.93749886  0.93953533  1  0.110905  0  0.115745  0.085881  0  1.026386  0
H  H75  1  0.16872577  0.93307928  0.84847328  1  0.064937  0  0.100105  0.10358  0  1.065494  0
H  H76  1  0.24635866  0.10241520  0.66563061  1  0.085334  0  0.107946  0.116488  0  1.020585  0
H  H77  1  0.36576722  0.09939559  0.76357972  1  0.137147  0  0.123172  0.097078  0  0.990957  0
H  H78  1  0.07581690  0.98760606  0.72630641  1  0.052326  0  0.100227  0.098498  0  1.021341  0
H  H79  1  0.18580512  0.04028980  0.57876305  1  0.089883  0  0.107204  0.106733  0  1.012011  0
H  H80  1  0.83943450  0.15313421  0.34825480  1  0.103573  0  0.096723  0.095048  0  1.062405  0
H  H81  1  0.86183772  0.29757099  0.34527582  1  0.074623  0  0.098002  0.092695  0  1.007102  0
H  H82  1  0.97496696  0.31126247  0.44203786  1  0.074354  0  0.097901  0.095156  0  1.02388  0
H  H83  1  0.06333422  0.18022076  0.54272006  1  0.068382  0  0.099752  0.097502  0  1.036739  0
C  C84  1  0.34577497  0.16661223  0.55074168  1  1.580077  0  0.208174  0.575728  0  4.203158  0
C  C85  1  0.25756970  0.26149570  0.57864720  1  -0.047167  0  -0.02191  -0.038099  0  3.973952  0
C  C86  1  0.26367107  0.31235638  0.64611715  1  -0.032092  0  -0.085469  -0.090705  0  3.999269  0
C  C87  1  0.18220446  0.39983134  0.67260582  1  -0.048611  0  -0.092367  -0.132331  0  3.967268  0
C  C88  1  0.09112431  0.44027662  0.63265032  1  -0.000903  0  -0.011385  0.115216  0  4.041836  0
C  C89  1  0.08555773  0.38803199  0.56544402  1  -0.028043  0  -0.094464  -0.143732  0  3.974374  0
C  C90  1  0.16751166  0.30041582  0.53860717  1  -0.004708  0  -0.090047  -0.100065  0  4.001928  0
C  C91  1  0.00351447  0.53129710  0.65970336  1  -0.068713  0  -0.093001  -0.140573  0  3.993363  0
C  C92  1  0.00173694  0.59145472  0.71878853  1  -0.082205  0  -0.087305  -0.122346  0  4.007602  0
C  C93  1  0.91413070  0.67739585  0.75398715  1  -0.049314  0  -0.012876  0.106924  0  4.056361  0
C  C94  1  0.92226545  0.71384053  0.83053585  1  -0.053544  0  -0.093989  -0.140064  0  3.982134  0
C  C95  1  0.83850331  0.78807563  0.87328249  1  -0.086345  0  -0.086186  -0.089777  0  3.990167  0
C  C96  1  0.74406484  0.82914813  0.84005733  1  -0.022513  0  -0.018037  -0.033932  0  3.957073  0
C  C97  1  0.73606888  0.79755786  0.76134349  1  -0.006053  0  -0.080412  -0.083047  0  3.956349  0
C  C98  1  0.81988784  0.72289910  0.71892937  1  -0.007048  0  -0.089584  -0.128463  0  3.944984  0
C  C99  1  0.65245699  0.90132632  0.89122439  1  1.568262  0  0.208169  0.576254  0  4.198803  0
C  C100  1  0.25219896  0.02595335  0.37874790  1  0.476916  0  0.04996  0.102466  0  3.938794  0
C  C101  1  0.18196345  0.02821761  0.32780041  1  0.011633  0  -0.08435  -0.178013  0  3.938879  0
C  C102  1  0.21403306  0.98368143  0.24830075  1  -0.028395  0  0.012035  0.157739  0  4.022329  0
C  C103  1  0.31842828  0.93538947  0.22549469  1  -0.005647  0  -0.078576  -0.168912  0  3.914255  0
C  C104  1  0.38418997  0.93611325  0.28013393  1  0.473661  0  0.056876  0.110494  0  3.920444  0
C  C105  1  0.13793642  0.99185063  0.19425386  1  -0.001816  0  -0.086581  -0.132995  0  3.972144  0
C  C106  1  0.15140957  0.97963702  0.11004304  1  -0.079558  0  -0.072846  -0.091642  0  3.967092  0
C  C107  1  0.07315187  0.99114188  0.05585356  1  -0.01617  0  -0.002805  0.018771  0  3.947268  0
C  C108  1  0.09523697  0.91517527  0.99928113  1  -0.000494  0  -0.006996  0.023981  0  3.97899  0
C  C109  1  0.02205462  0.92360019  0.94269671  1  -0.075188  0  -0.004377  0.030851  0  3.965672  0
C  C110  1  0.04818852  0.84346185  0.88867538  1  -0.081065  0  -0.093668  -0.134021  0  3.987672  0
C  C111  1  0.14117902  0.76208900  0.88774992  1  -0.036531  0  -0.095426  -0.083697  0  4.031906  0
C  C112  1  0.21305004  0.75408983  0.94297330  1  -0.017349  0  -0.091014  -0.075128  0  4.019991  0
C  C113  1  0.18952531  0.82786025  0.99819006  1  -0.069659  0  -0.092375  -0.131102  0  3.984401  0
C  C114  1  0.48743991  0.16662881  0.94916796  1  1.571048  0  0.208437  0.575859  0  4.201782  0
C  C115  1  0.48075481  0.26152171  0.92125247  1  0.011965  0  -0.022199  -0.038738  0  3.97404  0
C  C116  1  0.42388976  0.31238934  0.85373636  1  -0.112688  0  -0.085596  -0.090776  0  3.999334  0
C  C117  1  0.41798823  0.39983080  0.82725746  1  0.011933  0  -0.092139  -0.1326  0  3.967556  0
C  C118  1  0.46864578  0.44023572  0.86727103  1  0.014057  0  -0.011218  0.115427  0  4.042733  0
C  C119  1  0.52634402  0.38799065  0.93450885  1  -0.057495  0  -0.094655  -0.14427  0  3.976168  0
C  C120  1  0.53188242  0.30042607  0.96133916  1  -0.066551  0  -0.089821  -0.098914  0  4.002206  0
C  C121  1  0.46529539  0.53126363  0.84028231  1  -0.075165  0  -0.093058  -0.140832  0  3.993909  0
C  C122  1  0.40684714  0.59147678  0.78126492  1  -0.072966  0  -0.087164  -0.121681  0  4.007818  0
C  C123  1  0.40842596  0.67745107  0.74607150  1  -0.048378  0  -0.013117  0.10639  0  4.057136  0
C  C124  1  0.36377692  0.71391207  0.66956502  1  -0.040282  0  -0.093873  -0.139706  0  3.982439  0
C  C125  1  0.37335770  0.78811429  0.62678390  1  -0.071313  0  -0.086188  -0.09045  0  3.99111  0
C  C126  1  0.42678398  0.82915429  0.65996433  1  -0.037445  0  -0.018181  -0.034184  0  3.957908  0
C  C127  1  0.46640199  0.79757654  0.73866835  1  -0.000494  0  -0.080397  -0.082718  0  3.956146  0
C  C128  1  0.45723285  0.72293111  0.78108685  1  -0.019796  0  -0.089415  -0.128175  0  3.944535  0
C  C129  1  0.44622011  0.90129704  0.60875382  1  1.568065  0  0.208451  0.576884  0  4.197663  0
C  C130  1  0.72196137  0.02605034  0.12125863  1  0.449883  0  0.050651  0.103552  0  3.938199  0
C  C131  1  0.78995149  0.02827325  0.17221580  1  0.026445  0  -0.084409  -0.178113  0  3.937534  0
C  C132  1  0.80245629  0.98365672  0.25167280  1  -0.036448  0  0.011469  0.157529  0  4.022091  0
C  C133  1  0.74633258  0.93536513  0.27445150  1  0.034103  0  -0.078163  -0.168263  0  3.914126  0
C  C134  1  0.67984394  0.93612453  0.21980723  1  0.436376  0  0.057224  0.111054  0  3.919781  0
C  C135  1  0.87037369  0.99180748  0.30572616  1  -0.057925  0  -0.086746  -0.133629  0  3.972888  0
C  C136  1  0.86901909  0.97961249  0.38993148  1  -0.048324  0  -0.072786  -0.091107  0  3.967213  0
C  C137  1  0.93572835  0.99113879  0.44415263  1  0.025116  0  -0.002761  0.018553  0  3.947137  0
C  C138  1  0.98955770  0.91518078  0.50074431  1  -0.063956  0  -0.006756  0.024174  0  3.978905  0
C  C139  1  0.05432723  0.92359713  0.55730064  1  -0.048657  0  -0.004389  0.031015  0  3.965963  0
C  C140  1  0.10833023  0.84344292  0.61129723  1  -0.074903  0  -0.093846  -0.134185  0  3.987119  0
C  C141  1  0.09671534  0.76206019  0.61220480  1  -0.069709  0  -0.095466  -0.083972  0  4.031377  0
C  C142  1  0.03278708  0.75408268  0.55701459  1  -0.009551  0  -0.09092  -0.075067  0  4.019079  0
C  C143  1  0.98253976  0.82787559  0.50182431  1  -0.071249  0  -0.092529  -0.131188  0  3.984419  0
C  C144  1  0.65422613  0.83338826  0.44925889  1  1.580029  0  0.208142  0.575736  0  4.203119  0
C  C145  1  0.74243110  0.73850406  0.42135155  1  -0.047207  0  -0.021941  -0.038259  0  3.973893  0
C  C146  1  0.73632967  0.68764484  0.35388405  1  -0.032158  0  -0.085492  -0.090617  0  3.999202  0
C  C147  1  0.81779796  0.60016915  0.32739464  1  -0.048456  0  -0.092338  -0.13233  0  3.967393  0
C  C148  1  0.90887679  0.55972387  0.36734900  1  -0.001104  0  -0.011384  0.115188  0  4.042027  0
C  C149  1  0.91444440  0.61196777  0.43455461  1  -0.028042  0  -0.094489  -0.143755  0  3.974369  0
C  C150  1  0.83249052  0.69958249  0.46139027  1  -0.004525  0  -0.089987  -0.099918  0  4.001802  0
C  C151  1  0.99648663  0.46870339  0.34029659  1  -0.068737  0  -0.092965  -0.140493  0  3.99343  0
C  C152  1  0.99826248  0.40854649  0.28121279  1  -0.082589  0  -0.08732  -0.122343  0  4.007641  0
C  C153  1  0.08586770  0.32260608  0.24601486  1  -0.048945  0  -0.012764  0.107034  0  4.056162  0
C  C154  1  0.07773263  0.28616068  0.16946371  1  -0.05338  0  -0.093998  -0.140137  0  3.98211  0
C  C155  1  0.16149478  0.21192558  0.12671769  1  -0.086455  0  -0.086246  -0.089832  0  3.990183  0
C  C156  1  0.25593596  0.17085163  0.15994393  1  -0.022427  0  -0.018047  -0.033962  0  3.9571  0
C  C157  1  0.26393156  0.20244263  0.23865714  1  -0.006048  0  -0.080453  -0.08309  0  3.956359  0
C  C158  1  0.18011091  0.27710212  0.28107138  1  -0.00704  0  -0.089587  -0.128419  0  3.944919  0
C  C159  1  0.34754194  0.09867054  0.10877528  1  1.568566  0  0.208115  0.576123  0  4.19874  0
C  C160  1  0.74780287  0.97404569  0.62125268  1  0.476958  0  0.050045  0.102557  0  3.938694  0
C  C161  1  0.81803808  0.97178071  0.67220085  1  0.011578  0  -0.084388  -0.178101  0  3.938949  0
C  C162  1  0.78596739  0.01631906  0.75170114  1  -0.028361  0  0.012102  0.157808  0  4.022328  0
C  C163  1  0.68157150  0.06461102  0.77450663  1  -0.005697  0  -0.078593  -0.168995  0  3.914311  0
C  C164  1  0.61581041  0.06388869  0.71986727  1  0.473627  0  0.056913  0.110627  0  3.920479  0
C  C165  1  0.86206402  0.00814986  0.80574803  1  -0.001779  0  -0.086595  -0.133044  0  3.972199  0
C  C166  1  0.84859256  0.02036275  0.88995936  1  -0.079483  0  -0.072848  -0.091586  0  3.967082  0
C  C167  1  0.92684996  0.00885716  0.94414576  1  -0.015771  0  -0.00278  0.018825  0  3.947187  0
C  C168  1  0.90476142  0.08482666  0.00071837  1  -0.000889  0  -0.006948  0.024059  0  3.978905  0
C  C169  1  0.97794581  0.07640030  0.05730141  1  -0.075156  0  -0.004376  0.030835  0  3.965669  0
C  C170  1  0.95181125  0.15653864  0.11132343  1  -0.08143  0  -0.093648  -0.134002  0  3.987547  0
C  C171  1  0.85881773  0.23791221  0.11224913  1  -0.03649  0  -0.095419  -0.083717  0  4.031907  0
C  C172  1  0.78694979  0.24590921  0.05702683  1  -0.017375  0  -0.09099  -0.075011  0  4.020005  0
C  C173  1  0.81047380  0.17214024  0.00180944  1  -0.069671  0  -0.09241  -0.131226  0  3.984469  0
C  C174  1  0.51255757  0.83337095  0.05082921  1  1.571478  0  0.208472  0.575899  0  4.201809  0
C  C175  1  0.51924665  0.73847805  0.07874497  1  0.012659  0  -0.022223  -0.038778  0  3.973937  0
C  C176  1  0.57611134  0.68761115  0.14626233  1  -0.112998  0  -0.085581  -0.090681  0  3.999219  0
C  C177  1  0.58201088  0.60016969  0.17274204  1  0.011966  0  -0.092136  -0.132622  0  3.967528  0
C  C178  1  0.53135339  0.55976332  0.13272852  1  0.014056  0  -0.011187  0.11547  0  4.042745  0
C  C179  1  0.47365612  0.61200911  0.06549058  1  -0.057484  0  -0.094664  -0.144295  0  3.976185  0
C  C180  1  0.46811837  0.69957370  0.03865959  1  -0.066866  0  -0.089828  -0.098904  0  4.002148  0
C  C181  1  0.53470306  0.46873686  0.15971725  1  -0.075214  0  -0.093048  -0.140833  0  3.993942  0
C  C182  1  0.59315197  0.40852370  0.21873457  1  -0.072982  0  -0.087163  -0.121721  0  4.007785  0
C  C183  1  0.59157272  0.32255159  0.25392731  1  -0.048421  0  -0.013167  0.106341  0  4.057026  0
C  C184  1  0.63622118  0.28608914  0.33043767  1  -0.040245  0  -0.093891  -0.139711  0  3.98233  0
C  C185  1  0.62664238  0.21188692  0.37321736  1  -0.071351  0  -0.086196  -0.090462  0  3.991156  0
C  C186  1  0.57321645  0.17084620  0.34003505  1  -0.037517  0  -0.018208  -0.034232  0  3.958133  0
C  C187  1  0.53359947  0.20242322  0.26133348  1  -0.000436  0  -0.080398  -0.082729  0  3.95628  0
C  C188  1  0.54276548  0.27707228  0.21891509  1  -0.019761  0  -0.089357  -0.128116  0  3.944495  0
C  C189  1  0.55377924  0.09870562  0.39124619  1  1.568207  0  0.208447  0.576777  0  4.197868  0
C  C190  1  0.27803732  0.97395232  0.87874143  1  0.450225  0  0.050622  0.103615  0  3.938253  0
C  C191  1  0.21004654  0.97172941  0.82778558  1  0.026074  0  -0.084391  -0.178106  0  3.937661  0
C  C192  1  0.19754319  0.01634304  0.74832795  1  -0.036389  0  0.011397  0.157367  0  4.022135  0
C  C193  1  0.25366755  0.06463463  0.72554793  1  0.034139  0  -0.078139  -0.168198  0  3.914093  0
C  C194  1  0.32015656  0.06387451  0.78019346  1  0.436326  0  0.057241  0.111122  0  3.91982  0
C  C195  1  0.12962554  0.00819012  0.69427220  1  -0.057927  0  -0.086698  -0.133568  0  3.972819  0
C  C196  1  0.13098353  0.02038365  0.61006915  1  -0.048197  0  -0.072834  -0.091155  0  3.967182  0
C  C197  1  0.06427329  0.00885663  0.55584561  1  0.024926  0  -0.002749  0.01855  0  3.946973  0
C  C198  1  0.01044455  0.08481609  0.49925632  1  -0.064075  0  -0.006749  0.024178  0  3.97886  0
C  C199  1  0.94567339  0.07639901  0.44269829  1  -0.048603  0  -0.004469  0.030857  0  3.965946  0
C  C200  1  0.89166997  0.15655540  0.38870163  1  -0.074809  0  -0.093834  -0.134142  0  3.987108  0
C  C201  1  0.90328449  0.23793885  0.38779533  1  -0.069697  0  -0.095543  -0.084078  0  4.031602  0
C  C202  1  0.96721174  0.24591708  0.44298559  1  -0.009551  0  -0.090926  -0.07507  0  4.019094  0
C  C203  1  0.01746007  0.17212345  0.49817582  1  -0.071205  0  -0.092492  -0.131122  0  3.984393  0
N  N204  1  0.35187399  0.98108227  0.35551050  1  -1.266157  0  -0.327476  -0.214618  0  3.527772  0
N  N205  1  0.66717760  0.98114952  0.14445021  1  -1.222692  0  -0.328146  -0.216342  0  3.528291  0
N  N206  1  0.64812675  0.01891894  0.64449070  1  -1.266061  0  -0.327546  -0.214737  0  3.527849  0
N  N207  1  0.33282182  0.01885169  0.85555111  1  -1.22272  0  -0.328114  -0.216398  0  3.528372  0
O  O208  1  0.33527867  0.12465872  0.48893338  1  -1.172106  0  -0.314953  -0.549708  0  2.342218  0
O  O209  1  0.42413312  0.13507648  0.59173506  1  -1.182006  0  -0.317088  -0.547681  0  2.328364  0
O  O210  1  0.66670638  0.92667169  0.96156727  1  -1.177155  0  -0.321519  -0.562219  0  2.348084  0
O  O211  1  0.56710300  0.93008252  0.86199807  1  -1.163378  0  -0.311689  -0.536527  0  2.340468  0
O  O212  1  0.53988104  0.12476820  0.01099903  1  -1.174219  0  -0.315002  -0.5497  0  2.341749  0
O  O213  1  0.44070896  0.13498495  0.90817486  1  -1.17336  0  -0.317274  -0.547819  0  2.327664  0
O  O214  1  0.40675745  0.92649174  0.53835183  1  -1.178535  0  -0.321617  -0.562367  0  2.347832  0
O  O215  1  0.50269926  0.93018897  0.63801104  1  -1.163539  0  -0.311776  -0.536662  0  2.340352  0
O  O216  1  0.66472067  0.87534394  0.51106537  1  -1.172065  0  -0.314907  -0.549682  0  2.342277  0
O  O217  1  0.57586871  0.86492256  0.40826489  1  -1.182012  0  -0.31708  -0.547684  0  2.328344  0
O  O218  1  0.33329562  0.07332301  0.03843223  1  -1.177261  0  -0.321496  -0.562139  0  2.348053  0
O  O219  1  0.43289486  0.06991652  0.13800725  1  -1.163587  0  -0.311633  -0.536446  0  2.340326  0
O  O220  1  0.46012072  0.87523229  0.98899960  1  -1.174316  0  -0.31504  -0.549701  0  2.341899  0
O  O221  1  0.55929262  0.86501191  0.09182395  1  -1.173752  0  -0.317245  -0.547807  0  2.327576  0
O  O222  1  0.59324298  0.07350874  0.46164755  1  -1.178544  0  -0.321632  -0.562322  0  2.347827  0
O  O223  1  0.49730003  0.06981514  0.36198639  1  -1.163602  0  -0.311736  -0.53656  0  2.340455  0
