# generated using pymatgen
data_CuH7C9NO3
_symmetry_space_group_name_H-M   'P 1'
_cell_length_a   6.87689267
_cell_length_b   15.77646333
_cell_length_c   15.77583776
_cell_angle_alpha   117.91962809
_cell_angle_beta   98.38012376
_cell_angle_gamma   98.37246967
_symmetry_Int_Tables_number   1
_chemical_formula_structural   CuH7C9NO3
_chemical_formula_sum   'Cu6 H42 C54 N6 O18'
_cell_volume   1450.74404391
_cell_formula_units_Z   6
loop_
 _symmetry_equiv_pos_site_id
 _symmetry_equiv_pos_as_xyz
  1  'x, y, z'
loop_
 _atom_site_type_symbol
 _atom_site_label
 _atom_site_symmetry_multiplicity
 _atom_site_fract_x
 _atom_site_fract_y
 _atom_site_fract_z
 _atom_site_occupancy
 _atom_site_pbe_bader_charge
 _atom_site_pbe_bader_spin_density
 _atom_site_pbe_cm5_charge
 _atom_site_pbe_ddec_charge
 _atom_site_pbe_ddec_spin_density
 _atom_site_pbe_ddec_sum_bond_order
 _atom_site_pbe_magmom
Cu  Cu0  1  0.61926798  0.47358560  0.57109925  1  1.08157  0.484171  0.731168  0.821907  0.618632  2.29864  0.484
Cu  Cu1  1  0.14569953  0.09752851  0.52648161  1  1.083119  -0.484164  0.730932  0.822067  -0.618254  2.296661  -0.484
Cu  Cu2  1  0.04802082  0.42901485  0.90238587  1  1.084743  0.494168  0.731333  0.822091  0.630421  2.2982  0.494
Cu  Cu3  1  0.38073314  0.52641275  0.42889610  1  1.081589  -0.484167  0.731165  0.821984  -0.618617  2.298482  -0.484
Cu  Cu4  1  0.85429790  0.90247131  0.47351863  1  1.083028  0.484148  0.730883  0.82192  0.618225  2.296765  0.484
Cu  Cu5  1  0.95197846  0.57098571  0.09761293  1  1.08474  -0.494168  0.731392  0.822224  -0.630419  2.298158  -0.494
H  H6  1  0.48270529  0.38194743  0.24443969  1  0.147541  -0.000275  0.101594  0.131338  -0.000132  1.054849  0.0
H  H7  1  0.10150177  0.86221933  0.61771222  1  0.140414  0.000276  0.101373  0.131205  0.000148  1.055057  0.0
H  H8  1  0.23875933  0.75559231  0.13769540  1  0.128659  -0.000275  0.101752  0.131386  -0.000149  1.05482  0.0
H  H9  1  0.51729917  0.61805757  0.75555582  1  0.147567  0.000275  0.101571  0.131313  0.000132  1.054841  0.0
H  H10  1  0.89848059  0.13778271  0.38229062  1  0.139817  -0.000276  0.101411  0.131205  -0.000148  1.054978  0.0
H  H11  1  0.76124106  0.24441047  0.86230452  1  0.128749  0.000275  0.101746  0.131394  0.000149  1.054795  0.0
H  H12  1  0.66027445  0.28334100  0.12165685  1  0.090564  0.000455  0.097288  0.094464  0.000241  1.027806  0.0
H  H13  1  0.37796794  0.83814145  0.71636864  1  0.067685  -0.000438  0.097527  0.094284  -0.000195  1.027779  0.0
H  H14  1  0.53920823  0.87846805  0.16191271  1  0.090228  0.000439  0.09756  0.094651  0.000197  1.026995  0.0
H  H15  1  0.33974730  0.71666623  0.87833891  1  0.090643  -0.000455  0.097214  0.094342  -0.000241  1.027808  0.0
H  H16  1  0.62201146  0.16186059  0.28363908  1  0.067273  0.000438  0.09755  0.094265  0.000195  1.027891  0.0
H  H17  1  0.46079032  0.12153399  0.83808611  1  0.090233  -0.000438  0.097564  0.094679  -0.000197  1.027071  0.0
H  H18  1  0.97674883  0.24159891  0.17511399  1  0.065987  4.2e-05  0.101677  0.10734  2.4e-05  0.990007  0.0
H  H19  1  0.73623289  0.93354407  0.75835965  1  0.065036  -4e-05  0.101742  0.107108  -2.1e-05  0.990817  0.0
H  H20  1  0.80223723  0.82515655  0.06676995  1  0.059359  3.9e-05  0.101403  0.106693  1.9e-05  0.990571  0.0
H  H21  1  0.02328468  0.75840536  0.82487860  1  0.064497  -4.3e-05  0.101698  0.107343  -2.5e-05  0.990137  0.0
H  H22  1  0.26375312  0.06646240  0.24165502  1  0.064918  3.9e-05  0.101639  0.10697  2.1e-05  0.991062  0.0
H  H23  1  0.19776758  0.17484623  0.93322961  1  0.059301  -4e-05  0.101413  0.106713  -2e-05  0.990642  0.0
H  H24  1  0.09912127  0.29436304  0.35389681  1  0.102004  -4.8e-05  0.105962  0.112126  4.8e-05  1.014204  0.0
H  H25  1  0.80554437  0.05960046  0.70561321  1  0.085451  4.9e-05  0.10647  0.112923  -4.8e-05  1.014147  0.0
H  H26  1  0.74571646  0.64639141  0.94079295  1  0.113785  -4.3e-05  0.106483  0.112946  4.4e-05  1.01331  0.0
H  H27  1  0.90089935  0.70563901  0.64610026  1  0.102132  4.7e-05  0.105948  0.112098  -4.8e-05  1.01425  0.0
H  H28  1  0.19445414  0.94040158  0.29439574  1  0.084953  -5e-05  0.106475  0.112897  4.8e-05  1.014186  0.0
H  H29  1  0.25429457  0.35360916  0.05920725  1  0.113704  4.3e-05  0.106498  0.112962  -4.5e-05  1.01336  0.0
H  H30  1  0.08407973  0.36495151  0.50903602  1  0.159901  0.009585  0.121593  0.104394  0.004836  1.01883  0.007
H  H31  1  0.71950482  0.14417505  0.63504216  1  0.140718  -0.00971  0.121573  0.103846  -0.004854  1.02026  -0.007
H  H32  1  0.57546303  0.49119889  0.85621595  1  0.164536  0.01  0.121796  0.10466  0.005221  1.019976  0.008
H  H33  1  0.91591734  0.63504757  0.49096195  1  0.159884  -0.009583  0.121573  0.104355  -0.004835  1.018825  -0.007
H  H34  1  0.28049226  0.85582995  0.36496175  1  0.140645  0.009706  0.121555  0.1038  0.004852  1.020288  0.007
H  H35  1  0.42454653  0.50880168  0.14378606  1  0.164603  -0.009999  0.121808  0.104649  -0.005221  1.01996  -0.008
H  H36  1  0.10601006  0.49094072  0.69890244  1  0.109787  0.000923  0.116612  0.129498  0.000459  0.984881  0.0
H  H37  1  0.61492921  0.20806599  0.50921265  1  0.116045  -0.00096  0.116307  0.12928  -0.000492  0.984413  0.0
H  H38  1  0.40739045  0.30140424  0.79237336  1  0.10892  0.000985  0.116506  0.128934  0.000488  0.985658  0.0
H  H39  1  0.89398263  0.50906132  0.30109220  1  0.109405  -0.000923  0.116578  0.129445  -0.000459  0.984925  0.0
H  H40  1  0.38506636  0.79192717  0.49078499  1  0.11605  0.000961  0.116283  0.129201  0.000492  0.984523  0.0
H  H41  1  0.59261840  0.69859780  0.20762485  1  0.108881  -0.000985  0.116505  0.128925  -0.000488  0.985683  0.0
H  H42  1  0.97098113  0.36909116  0.66133870  1  0.076716  0.001528  0.117401  0.123645  0.000711  0.977936  0.001
H  H43  1  0.60183524  0.29233426  0.63102320  1  0.071107  -0.001666  0.117447  0.123398  -0.000829  0.978517  -0.001
H  H44  1  0.30981742  0.33870496  0.70792037  1  0.078734  0.001705  0.117573  0.123378  0.000858  0.977689  0.001
H  H45  1  0.02900345  0.63090348  0.33865195  1  0.076734  -0.001528  0.117365  0.123611  -0.000711  0.97805  -0.001
H  H46  1  0.39816435  0.70766112  0.36898081  1  0.07107  0.001667  0.117476  0.123393  0.00083  0.978616  0.001
H  H47  1  0.69017673  0.66130004  0.29208209  1  0.078745  -0.001705  0.117566  0.123424  -0.000859  0.977611  -0.001
C  C48  1  0.86069801  0.36639637  0.39942843  1  0.000472  0.002972  -0.032209  -0.082531  0.001831  4.012169  0.003
C  C49  1  0.49485174  0.03304049  0.63360450  1  -0.016105  -0.002947  -0.032511  -0.082167  -0.001849  4.011106  -0.003
C  C50  1  0.46163220  0.60077493  0.96719272  1  0.009211  0.00328  -0.032367  -0.08159  0.002072  4.010284  0.003
C  C51  1  0.13931267  0.63360345  0.60056760  1  0.000687  -0.002973  -0.032197  -0.082392  -0.001831  4.012027  -0.003
C  C52  1  0.50515117  0.96695859  0.36640335  1  -0.016425  0.002946  -0.032509  -0.082207  0.001848  4.011492  0.003
C  C53  1  0.53836891  0.39922341  0.03280453  1  0.009401  -0.003278  -0.032311  -0.081418  -0.002071  4.010331  -0.003
C  C54  1  0.68560439  0.39484144  0.36986960  1  0.552245  -0.001246  0.093086  0.322767  -0.000661  4.019299  -0.001
C  C55  1  0.29128168  0.97492174  0.60499286  1  0.540475  0.001293  0.093021  0.321995  0.000672  4.017491  0.001
C  C56  1  0.31603977  0.63023863  0.02512294  1  0.580633  -0.0013  0.092939  0.321972  -0.000623  4.016926  -0.001
C  C57  1  0.31440334  0.60515543  0.63012422  1  0.551865  0.001249  0.093043  0.322663  0.000664  4.019342  0.001
C  C58  1  0.70871096  0.02507734  0.39500990  1  0.540994  -0.001299  0.093002  0.321994  -0.000676  4.017611  -0.001
C  C59  1  0.68395769  0.36976415  0.97487552  1  0.579655  0.0013  0.092933  0.32194  0.000622  4.016987  0.001
C  C60  1  0.61619250  0.36155257  0.26797061  1  -0.05142  0.006046  -0.115188  -0.234891  0.00442  3.954072  0.005
C  C61  1  0.25539619  0.90622521  0.63816384  1  -0.042663  -0.006168  -0.114751  -0.23403  -0.004472  3.953311  -0.005
C  C62  1  0.34870303  0.73211493  0.09378908  1  -0.061133  0.006369  -0.114909  -0.234491  0.004543  3.954433  0.005
C  C63  1  0.38382115  0.63845022  0.73202255  1  -0.051491  -0.006047  -0.115076  -0.23474  -0.004421  3.953986  -0.005
C  C64  1  0.74458320  0.09377387  0.36183997  1  -0.042793  0.006171  -0.114809  -0.234006  0.004473  3.953274  0.005
C  C65  1  0.65129995  0.26789007  0.90621141  1  -0.061242  -0.006368  -0.114849  -0.234424  -0.004542  3.954159  -0.005
C  C66  1  0.71875573  0.30689849  0.19944965  1  -0.087997  -0.001539  -0.084604  -0.036833  -0.001033  4.012868  -0.001
C  C67  1  0.41279359  0.89241020  0.69286225  1  -0.081264  0.001559  -0.084867  -0.036892  0.001058  4.013002  0.001
C  C68  1  0.51987489  0.80068971  0.10769561  1  -0.089632  -0.00152  -0.084325  -0.036162  -0.001037  4.010989  -0.001
C  C69  1  0.28126158  0.69310281  0.80054496  1  -0.08792  0.00154  -0.084518  -0.036675  0.001033  4.012655  0.001
C  C70  1  0.58718840  0.10759406  0.30714542  1  -0.080325  -0.001561  -0.08488  -0.036975  -0.001059  4.013029  -0.001
C  C71  1  0.48012805  0.19930937  0.89230527  1  -0.089548  0.001521  -0.084406  -0.036291  0.001038  4.010896  0.001
C  C72  1  0.89555138  0.28310240  0.22899452  1  -0.062664  0.000567  -0.110799  -0.128682  0.000336  4.059178  0.0
C  C73  1  0.61343103  0.94584444  0.71677812  1  -0.036394  -0.000594  -0.110779  -0.127947  -0.000352  4.060185  0.0
C  C74  1  0.66717625  0.77122454  0.05442094  1  -0.032421  0.000658  -0.110602  -0.12749  0.00039  4.058859  0.001
C  C75  1  0.10446076  0.71689151  0.77099757  1  -0.0605  -0.000568  -0.110714  -0.128585  -0.000337  4.059415  0.0
C  C76  1  0.38655056  0.05415908  0.28323361  1  -0.036607  0.000596  -0.110661  -0.127702  0.000353  4.060249  0.0
C  C77  1  0.33282485  0.22877381  0.94557948  1  -0.032422  -0.000658  -0.110616  -0.127547  -0.00039  4.058905  0.0
C  C78  1  0.96385276  0.31264044  0.32802515  1  -0.069191  -0.002463  -0.082842  -0.107717  -0.00147  4.007462  -0.002
C  C79  1  0.65200582  0.01538160  0.68730850  1  -0.028524  0.002459  -0.083053  -0.108832  0.001483  4.008354  0.002
C  C80  1  0.63634546  0.67222356  0.98492373  1  -0.075057  -0.002541  -0.083017  -0.109073  -0.001505  4.008262  -0.002
C  C81  1  0.03615757  0.68736160  0.67197126  1  -0.069643  0.002463  -0.082947  -0.1079  0.00147  4.007602  0.002
C  C82  1  0.34799304  0.98461822  0.31270324  1  -0.028001  -0.00246  -0.083093  -0.108852  -0.001484  4.008538  -0.002
C  C83  1  0.36365896  0.32777553  0.01507598  1  -0.074842  0.002542  -0.083  -0.109039  0.001506  4.008262  0.002
C  C84  1  0.94193200  0.38688982  0.49814368  1  0.601247  -0.003689  0.080942  0.119864  -0.001903  3.915226  -0.003
C  C85  1  0.55537564  0.11130179  0.61314617  1  0.608315  0.00373  0.08109  0.120479  0.001893  3.914622  0.003
C  C86  1  0.44411668  0.50207083  0.88896964  1  0.568795  -0.003267  0.080572  0.118779  -0.001531  3.913272  -0.003
C  C87  1  0.05806913  0.61311148  0.50185369  1  0.60146  0.003691  0.081009  0.119985  0.001906  3.915209  0.003
C  C88  1  0.44461736  0.88869803  0.38685759  1  0.608593  -0.003735  0.081107  0.120609  -0.001897  3.914471  -0.003
C  C89  1  0.55588332  0.49792529  0.11102460  1  0.568786  0.003268  0.080508  0.118668  0.001531  3.913296  0.003
C  C90  1  0.95404780  0.44009816  0.66791565  1  0.268206  0.004776  -0.069812  -0.203292  0.003818  3.943818  0.003
C  C91  1  0.51386486  0.22787040  0.56001429  1  0.269797  -0.004214  -0.069693  -0.202721  -0.003469  3.944758  -0.002
C  C92  1  0.28631069  0.33223775  0.77240315  1  0.255046  0.004424  -0.069823  -0.201875  0.003612  3.942246  0.002
C  C93  1  0.04594486  0.55990092  0.33208140  1  0.268743  -0.004776  -0.06979  -0.203242  -0.003818  3.944224  -0.003
C  C94  1  0.48613327  0.77212499  0.43998646  1  0.269881  0.004215  -0.069655  -0.202528  0.00347  3.945035  0.002
C  C95  1  0.71368674  0.66776207  0.22759582  1  0.25506  -0.004424  -0.069855  -0.201976  -0.003612  3.942319  -0.002
C  C96  1  0.82274349  0.48284487  0.74000316  1  1.570941  -0.001186  0.206816  0.60129  0.00014  4.169651  -0.002
C  C97  1  0.33970102  0.25715661  0.51721948  1  1.570585  0.00052  0.206554  0.601477  -0.000538  4.17205  0.001
C  C98  1  0.08294386  0.26004251  0.74306063  1  1.583014  -0.00043  0.20678  0.601188  0.000632  4.172412  -0.001
C  C99  1  0.17725359  0.51715125  0.25998835  1  1.570718  0.001184  0.206914  0.601409  -0.00014  4.169302  0.002
C  C100  1  0.66029456  0.74284248  0.48278220  1  1.570534  -0.000519  0.206521  0.601419  0.000539  4.172107  -0.001
C  C101  1  0.91705688  0.73996101  0.25694409  1  1.582984  0.000428  0.206766  0.601157  -0.000633  4.172546  0.001
N  N102  1  0.86043789  0.42627105  0.57202857  1  -1.175117  0.094521  -0.390473  -0.261256  0.062002  3.671065  0.081
N  N103  1  0.43427677  0.14579031  0.57382782  1  -1.184108  -0.09464  -0.389856  -0.260921  -0.062012  3.668851  -0.081
N  N104  1  0.28860064  0.42815129  0.85437923  1  -1.174538  0.096989  -0.389673  -0.260473  0.063526  3.665816  0.083
N  N105  1  0.13956031  0.57372729  0.42796215  1  -1.175352  -0.094515  -0.390501  -0.261388  -0.061998  3.671502  -0.081
N  N106  1  0.56572317  0.85420286  0.42618024  1  -1.184045  0.094648  -0.389893  -0.261063  0.062016  3.668721  0.081
N  N107  1  0.71140451  0.57184927  0.14562186  1  -1.17451  -0.096999  -0.389647  -0.260427  -0.063532  3.665693  -0.083
O  O108  1  0.59186440  0.45181975  0.43540221  1  -1.088786  0.030204  -0.344802  -0.5175  0.019359  2.567788  0.028
O  O109  1  0.14037924  0.98346395  0.54799676  1  -1.079178  -0.030305  -0.344382  -0.517159  -0.019455  2.565794  -0.028
O  O110  1  0.15659671  0.56464554  0.01647550  1  -1.090828  0.031626  -0.344251  -0.517073  0.020305  2.565162  0.029
O  O111  1  0.40814330  0.54817416  0.56459403  1  -1.089057  -0.030212  -0.344861  -0.517568  -0.019364  2.567859  -0.028
O  O112  1  0.85962150  0.01653957  0.45200733  1  -1.079143  0.030318  -0.344329  -0.517137  0.019464  2.565798  0.028
O  O113  1  0.84339927  0.43535724  0.98352476  1  -1.090305  -0.031617  -0.344258  -0.517044  -0.020299  2.56511  -0.029
O  O114  1  0.65941076  0.50088544  0.70696362  1  -1.119254  0.084707  -0.329935  -0.546585  0.054236  2.362086  0.077
O  O115  1  0.15824177  0.20618962  0.49936335  1  -1.116894  -0.083645  -0.330035  -0.547074  -0.053466  2.363492  -0.076
O  O116  1  0.95224617  0.29313520  0.79384401  1  -1.118314  0.085461  -0.330147  -0.547256  0.054576  2.363143  0.078
O  O117  1  0.34058927  0.49911068  0.29302492  1  -1.119339  -0.084702  -0.329932  -0.546615  -0.054233  2.362156  -0.077
O  O118  1  0.84174720  0.79381390  0.50064442  1  -1.116931  0.083647  -0.330026  -0.547027  0.053468  2.363498  0.076
O  O119  1  0.04775455  0.70686536  0.20616059  1  -1.118194  -0.085469  -0.330187  -0.547289  -0.05458  2.362989  -0.078
O  O120  1  0.87114531  0.49840026  0.82638964  1  -1.173938  0.018683  -0.314166  -0.549886  0.011957  2.288956  0.017
O  O121  1  0.37263190  0.32783911  0.50144732  1  -1.176478  -0.014304  -0.314236  -0.550437  -0.00876  2.287245  -0.011
O  O122  1  0.04545107  0.17355187  0.67252823  1  -1.179634  0.014505  -0.314745  -0.550533  0.008843  2.286784  0.011
O  O123  1  0.12884038  0.50159660  0.17360213  1  -1.173866  -0.018688  -0.314284  -0.550026  -0.01196  2.288702  -0.017
O  O124  1  0.62736367  0.67215701  0.49855298  1  -1.176404  0.01431  -0.314212  -0.550445  0.008764  2.28732  0.011
O  O125  1  0.95454487  0.82644499  0.32747116  1  -1.179676  -0.014506  -0.314681  -0.550433  -0.008843  2.287017  -0.011
