# generated using pymatgen
data_AlH7C16O9
_symmetry_space_group_name_H-M   'P 1'
_cell_length_a   6.64658258
_cell_length_b   18.38215757
_cell_length_c   17.80558973
_cell_angle_alpha   90.00019632
_cell_angle_beta   90.00042991
_cell_angle_gamma   89.81252677
_symmetry_Int_Tables_number   1
_chemical_formula_structural   AlH7C16O9
_chemical_formula_sum   'Al4 H28 C64 O36'
_cell_volume   2175.44910278
_cell_formula_units_Z   4
loop_
 _symmetry_equiv_pos_site_id
 _symmetry_equiv_pos_as_xyz
  1  'x, y, z'
loop_
 _atom_site_type_symbol
 _atom_site_label
 _atom_site_symmetry_multiplicity
 _atom_site_fract_x
 _atom_site_fract_y
 _atom_site_fract_z
 _atom_site_occupancy
 _atom_site_pbe_bader_charge
 _atom_site_pbe_bader_spin_density
 _atom_site_pbe_cm5_charge
 _atom_site_pbe_ddec_charge
 _atom_site_pbe_ddec_spin_density
 _atom_site_pbe_ddec_sum_bond_order
 _atom_site_pbe_magmom
Al  Al0  1  0.24666725  0.74964009  0.74474027  1  2.49775  0  0.402754  1.648607  0  2.575867  0
Al  Al1  1  0.75333029  0.25036137  0.25525841  1  2.498063  0  0.402705  1.648599  0  2.575868  0
Al  Al2  1  0.25332733  0.25035627  0.24474192  1  2.497952  0  0.40277  1.648498  0  2.575856  0
Al  Al3  1  0.74666275  0.74963704  0.75526182  1  2.49803  0  0.402657  1.648519  0  2.576066  0
H  H4  1  0.75681573  0.38768758  0.44840475  1  0.183171  0  0.114941  0.12578  0  1.033271  0
H  H5  1  0.24317275  0.61231824  0.55158944  1  0.183138  0  0.114953  0.125869  0  1.033254  0
H  H6  1  0.74318417  0.61231691  0.94840991  1  0.183079  0  0.114927  0.125767  0  1.033283  0
H  H7  1  0.25681335  0.38768728  0.05158709  1  0.183199  0  0.114947  0.125784  0  1.033311  0
H  H8  1  0.25794201  0.11327049  0.05131310  1  0.171159  0  0.114724  0.125003  0  1.032046  0
H  H9  1  0.74207210  0.88672880  0.94869008  1  0.171055  0  0.114723  0.125034  0  1.032054  0
H  H10  1  0.24204719  0.88672306  0.55131304  1  0.1709  0  0.114766  0.125084  0  1.032019  0
H  H11  1  0.75794289  0.11326970  0.44868845  1  0.171155  0  0.114725  0.125041  0  1.032137  0
H  H12  1  0.48686763  0.42156484  0.33009383  1  0.115512  0  0.112887  0.059693  0  0.972901  0
H  H13  1  0.51311797  0.57842411  0.66991271  1  0.128239  0  0.112864  0.059562  0  0.973081  0
H  H14  1  0.01315878  0.57842799  0.83006903  1  0.115757  0  0.112879  0.059703  0  0.972844  0
H  H15  1  0.98686279  0.42157837  0.16992011  1  0.128438  0  0.112906  0.059673  0  0.972933  0
H  H16  1  0.98642136  0.07144418  0.17309434  1  0.104036  0  0.111636  0.058007  0  0.978319  0
H  H17  1  0.01357467  0.92855729  0.82691558  1  0.104215  0  0.111625  0.057948  0  0.978291  0
H  H18  1  0.51357906  0.92855287  0.67308762  1  0.104251  0  0.11164  0.057991  0  0.978351  0
H  H19  1  0.48642152  0.07144425  0.32691331  1  0.104188  0  0.111598  0.05798  0  0.978347  0
H  H20  1  0.49745404  0.45689047  0.62220330  1  0.079232  0  0.109384  0.050433  0  0.973335  0
H  H21  1  0.50252850  0.54310501  0.37779819  1  0.079539  0  0.109442  0.050584  0  0.973259  0
H  H22  1  0.00254405  0.54310984  0.12220697  1  0.079443  0  0.109394  0.050491  0  0.973245  0
H  H23  1  0.99747303  0.45689380  0.87778554  1  0.079808  0  0.109405  0.050523  0  0.973165  0
H  H24  1  0.00126568  0.04679565  0.87662761  1  0.076301  0  0.109827  0.051068  0  0.971863  0
H  H25  1  0.99875143  0.95320472  0.12337669  1  0.076267  0  0.109764  0.051024  0  0.971898  0
H  H26  1  0.49874056  0.95320387  0.37662737  1  0.076404  0  0.109818  0.051065  0  0.971874  0
H  H27  1  0.50125705  0.04678780  0.62336907  1  0.076462  0  0.109829  0.051089  0  0.971815  0
H  H28  1  0.51336797  0.75920815  0.65093978  1  0.612292  0  0.364056  0.448012  0  0.823719  0
H  H29  1  0.48662965  0.24078352  0.34905666  1  0.612318  0  0.364106  0.448067  0  0.823645  0
H  H30  1  0.98662003  0.24078121  0.15094317  1  0.612296  0  0.364147  0.44807  0  0.823706  0
H  H31  1  0.01337910  0.75920937  0.84905776  1  0.612344  0  0.364084  0.448037  0  0.823727  0
C  C32  1  0.49163157  0.64948111  0.83780334  1  1.574133  0  0.275909  0.651953  0  4.077729  0
C  C33  1  0.50835541  0.35052525  0.16219646  1  1.573907  0  0.275859  0.651945  0  4.077767  0
C  C34  1  0.00837090  0.35051556  0.33780129  1  1.574019  0  0.275923  0.651947  0  4.077739  0
C  C35  1  0.99162517  0.64948101  0.66219514  1  1.574542  0  0.275775  0.651788  0  4.077939  0
C  C36  1  0.99114892  0.85034673  0.66188604  1  1.579254  0  0.275417  0.653618  0  4.07555  0
C  C37  1  0.00886524  0.14964440  0.33811489  1  1.578815  0  0.275466  0.653838  0  4.075023  0
C  C38  1  0.50885129  0.14964865  0.16188834  1  1.579213  0  0.275318  0.653406  0  4.075728  0
C  C39  1  0.49114320  0.85035880  0.83811315  1  1.578715  0  0.275369  0.65368  0  4.07506  0
C  C40  1  0.02741523  0.41375645  0.38949812  1  0.018077  0  0.003123  -0.052562  0  3.943412  0
C  C41  1  0.97256578  0.58624339  0.61049551  1  0.018065  0  0.003189  -0.052545  0  3.943345  0
C  C42  1  0.47259277  0.58624366  0.88949765  1  0.018038  0  0.003161  -0.05251  0  3.943485  0
C  C43  1  0.52741980  0.41375889  0.11050047  1  0.01791  0  0.003086  -0.052697  0  3.943481  0
C  C44  1  0.52686074  0.08578597  0.11084866  1  0.017192  0  0.003028  -0.051998  0  3.94456  0
C  C45  1  0.47314884  0.91421440  0.88915620  1  0.017703  0  0.00304  -0.052049  0  3.944413  0
C  C46  1  0.97313544  0.91420870  0.61084598  1  0.01717  0  0.003034  -0.052133  0  3.944191  0
C  C47  1  0.02686216  0.08578570  0.38915663  1  0.017914  0  0.003026  -0.052026  0  3.944427  0
C  C48  1  0.77027428  0.48694412  0.56169689  1  0.006602  0  -0.006917  -0.059221  0  3.930365  0
C  C49  1  0.22970829  0.51304756  0.43829954  1  0.006536  0  -0.007032  -0.059131  0  3.930581  0
C  C50  1  0.72971793  0.51304658  0.06169603  1  0.006648  0  -0.007013  -0.059159  0  3.930553  0
C  C51  1  0.27029016  0.48695271  0.93829647  1  0.006777  0  -0.007017  -0.059175  0  3.930803  0
C  C52  1  0.27110081  0.01406563  0.93802325  1  0.016635  0  -0.006778  -0.058651  0  3.930811  0
C  C53  1  0.72891175  0.98593910  0.06197824  1  0.016314  0  -0.006679  -0.058489  0  3.930765  0
C  C54  1  0.22890365  0.98593573  0.43802630  1  0.016583  0  -0.006776  -0.058684  0  3.930815  0
C  C55  1  0.77109543  0.01406084  0.56197631  1  0.016402  0  -0.006668  -0.058587  0  3.930747  0
C  C56  1  0.80150011  0.54062592  0.61578791  1  -0.029591  0  0.020563  0.023233  0  3.879104  0
C  C57  1  0.19846738  0.45937011  0.38420179  1  -0.02956  0  0.020624  0.023242  0  3.879564  0
C  C58  1  0.69847503  0.45937910  0.11579801  1  -0.029465  0  0.020621  0.023255  0  3.879172  0
C  C59  1  0.30154959  0.54062291  0.88419618  1  -0.029611  0  0.020644  0.023201  0  3.879392  0
C  C60  1  0.30345743  0.96083152  0.88347187  1  -0.047408  0  0.019084  0.019929  0  3.886635  0
C  C61  1  0.69654762  0.03917157  0.11653355  1  -0.046854  0  0.019069  0.019743  0  3.886925  0
C  C62  1  0.19654292  0.03916856  0.38347206  1  -0.04688  0  0.019114  0.02001  0  3.886693  0
C  C63  1  0.80343664  0.96082311  0.61652438  1  -0.046522  0  0.019052  0.020012  0  3.886453  0
C  C64  1  0.11292548  0.57669942  0.55409403  1  -0.033615  0  -0.055912  -0.097507  0  3.876275  0
C  C65  1  0.88707210  0.42329770  0.44590522  1  -0.034029  0  -0.05588  -0.097442  0  3.876098  0
C  C66  1  0.38707426  0.42330013  0.05409273  1  -0.033777  0  -0.055876  -0.097293  0  3.876082  0
C  C67  1  0.61293532  0.57670025  0.94590539  1  -0.033917  0  -0.055848  -0.09738  0  3.876067  0
C  C68  1  0.61263958  0.92301022  0.94590825  1  -0.024159  0  -0.055769  -0.096352  0  3.876782  0
C  C69  1  0.38735800  0.07698527  0.05410279  1  -0.024299  0  -0.055726  -0.096221  0  3.8766  0
C  C70  1  0.88736628  0.07699480  0.44590798  1  -0.024533  0  -0.055708  -0.09633  0  3.876649  0
C  C71  1  0.11264925  0.92301536  0.55410250  1  -0.024062  0  -0.055775  -0.096262  0  3.876553  0
C  C72  1  0.08756547  0.52266008  0.49837095  1  -0.005301  0  0.015288  0.068253  0  3.928927  0
C  C73  1  0.91242154  0.47734139  0.50162324  1  0.054344  0  0.015257  0.068268  0  3.928908  0
C  C74  1  0.41243120  0.47733822  0.99836992  1  0.054906  0  0.015295  0.068146  0  3.928957  0
C  C75  1  0.58757693  0.52265563  0.00162314  1  -0.005768  0  0.015263  0.068251  0  3.928878  0
C  C76  1  0.58752550  0.97711212  0.00160092  1  0.054752  0  0.01508  0.069276  0  3.927676  0
C  C77  1  0.41249309  0.02289097  0.99840057  1  -0.004638  0  0.01507  0.069143  0  3.927596  0
C  C78  1  0.91247900  0.02288327  0.50159717  1  0.054916  0  0.014947  0.06914  0  3.927875  0
C  C79  1  0.08750207  0.97710786  0.49839927  1  -0.004885  0  0.015058  0.069114  0  3.927905  0
C  C80  1  0.34236060  0.45027077  0.31885395  1  0.94968  0  0.108104  0.274855  0  3.957271  0
C  C81  1  0.65761144  0.54972037  0.68114248  1  0.9369  0  0.108169  0.27522  0  3.956878  0
C  C82  1  0.15765657  0.54972149  0.81884012  1  0.950034  0  0.108037  0.274824  0  3.957343  0
C  C83  1  0.84236502  0.45028324  0.18115632  1  0.937252  0  0.108012  0.27494  0  3.95733  0
C  C84  1  0.83656982  0.04652350  0.18304939  1  0.947438  0  0.107368  0.2731  0  3.95763  0
C  C85  1  0.16344130  0.95347307  0.81695885  1  0.94716  0  0.107314  0.273125  0  3.957304  0
C  C86  1  0.66342779  0.95347413  0.68304486  1  0.947017  0  0.10745  0.273188  0  3.957391  0
C  C87  1  0.33656527  0.04652299  0.31696001  1  0.947165  0  0.107336  0.273022  0  3.957572  0
C  C88  1  0.58242166  0.44466541  0.56954016  1  0.920031  0  0.101376  0.269998  0  3.960028  0
C  C89  1  0.41756848  0.55531974  0.43046077  1  0.919628  0  0.101356  0.269809  0  3.96002  0
C  C90  1  0.91757374  0.55532150  0.06953885  1  0.919651  0  0.101271  0.269765  0  3.960376  0
C  C91  1  0.08243584  0.44467996  0.93045309  1  0.919317  0  0.101449  0.270012  0  3.95978  0
C  C92  1  0.08318097  0.05679193  0.93041703  1  0.940176  0  0.101872  0.269795  0  3.960242  0
C  C93  1  0.91683158  0.94321388  0.06958727  1  0.939937  0  0.101865  0.269677  0  3.960215  0
C  C94  1  0.41682781  0.94321320  0.43041708  1  0.93947  0  0.101911  0.269864  0  3.960208  0
C  C95  1  0.58317876  0.05678772  0.56958216  1  0.939497  0  0.101801  0.269706  0  3.960276  0
O  O96  1  0.66437216  0.82378054  0.82511069  1  -1.250021  0  -0.229494  -0.586372  0  2.342509  0
O  O97  1  0.33564343  0.17622201  0.17488968  1  -1.250036  0  -0.229463  -0.586203  0  2.343206  0
O  O98  1  0.83563580  0.17622190  0.32511567  1  -1.249926  0  -0.229559  -0.586508  0  2.342405  0
O  O99  1  0.16435428  0.82377032  0.67488919  1  -1.250101  0  -0.22955  -0.586386  0  2.343207  0
O  O100  1  0.16392661  0.67677352  0.67422790  1  -1.254683  0  -0.22781  -0.581082  0  2.340357  0
O  O101  1  0.83604542  0.32321870  0.32577472  1  -1.254644  0  -0.22782  -0.581136  0  2.339783  0
O  O102  1  0.33605747  0.32322914  0.17422947  1  -1.254371  0  -0.227814  -0.581055  0  2.339981  0
O  O103  1  0.66395656  0.67678048  0.82577707  1  -1.254751  0  -0.227796  -0.581114  0  2.339699  0
O  O104  1  0.32564315  0.67329426  0.81150467  1  -1.246763  0  -0.219722  -0.578808  0  2.385293  0
O  O105  1  0.67436489  0.32671210  0.18849738  1  -1.246615  0  -0.219699  -0.578832  0  2.384932  0
O  O106  1  0.17436025  0.32670831  0.31150918  1  -1.2468  0  -0.219695  -0.578751  0  2.385282  0
O  O107  1  0.82562227  0.67328990  0.68849400  1  -1.246859  0  -0.219651  -0.578721  0  2.384911  0
O  O108  1  0.82442315  0.82556608  0.68627923  1  -1.252173  0  -0.224285  -0.587158  0  2.370863  0
O  O109  1  0.17557143  0.17442941  0.31372675  1  -1.252271  0  -0.224328  -0.587239  0  2.371043  0
O  O110  1  0.67558202  0.17443591  0.18628433  1  -1.252294  0  -0.224309  -0.587175  0  2.370861  0
O  O111  1  0.32443052  0.82557208  0.81372391  1  -1.252119  0  -0.224293  -0.587235  0  2.370868  0
O  O112  1  0.50177422  0.75020348  0.70434994  1  -1.410959  0  -0.446846  -0.999636  0  2.205015  0
O  O113  1  0.49822034  0.24979472  0.29564874  1  -1.410993  0  -0.44689  -0.999642  0  2.204942  0
O  O114  1  0.99822080  0.24979530  0.20434946  1  -1.411032  0  -0.446937  -0.999702  0  2.205046  0
O  O115  1  0.00177223  0.75020508  0.79564810  1  -1.411065  0  -0.446846  -0.999624  0  2.205058  0
O  O116  1  0.30111776  0.47440424  0.25673974  1  -1.07194  0  -0.250069  -0.346988  0  2.170679  0
O  O117  1  0.69886475  0.52559559  0.74326007  1  -1.071883  0  -0.250116  -0.347209  0  2.170465  0
O  O118  1  0.19890415  0.52559107  0.75672537  1  -1.07273  0  -0.249995  -0.346895  0  2.171047  0
O  O119  1  0.80110995  0.47440876  0.24327275  1  -1.072616  0  -0.249988  -0.347001  0  2.170887  0
O  O120  1  0.78642010  0.02476597  0.24515000  1  -1.067927  0  -0.247352  -0.344416  0  2.175571  0
O  O121  1  0.21356391  0.97523496  0.75485430  1  -1.067591  0  -0.24731  -0.344453  0  2.175246  0
O  O122  1  0.71357116  0.97524329  0.74514288  1  -1.067606  0  -0.24748  -0.344599  0  2.175382  0
O  O123  1  0.28642481  0.02476742  0.25485637  1  -1.067562  0  -0.247282  -0.344391  0  2.175473  0
O  O124  1  0.51286070  0.40060356  0.52471305  1  -1.082507  0  -0.25792  -0.350151  0  2.143552  0
O  O125  1  0.48714148  0.59938158  0.47529462  1  -1.082191  0  -0.257971  -0.350235  0  2.143432  0
O  O126  1  0.98716997  0.59937558  0.02471041  1  -1.082226  0  -0.257794  -0.350039  0  2.143831  0
O  O127  1  0.01285168  0.40062207  0.97528771  1  -1.082164  0  -0.258037  -0.350337  0  2.143258  0
O  O128  1  0.01048495  0.09889681  0.97669909  1  -1.0866  0  -0.257475  -0.349625  0  2.144564  0
O  O129  1  0.98952461  0.90110574  0.02330520  1  -1.086434  0  -0.25745  -0.349509  0  2.144419  0
O  O130  1  0.48952326  0.90110793  0.47669977  1  -1.08653  0  -0.257512  -0.349696  0  2.144543  0
O  O131  1  0.51048181  0.09889190  0.52329667  1  -1.086566  0  -0.2574  -0.349568  0  2.14461  0
