# generated using pymatgen
data_ZnH30C45(NO)4
_symmetry_space_group_name_H-M   'P 1'
_cell_length_a   13.26875279
_cell_length_b   14.92912026
_cell_length_c   14.92916455
_cell_angle_alpha   113.40944440
_cell_angle_beta   98.07895165
_cell_angle_gamma   98.07860246
_symmetry_Int_Tables_number   1
_chemical_formula_structural   ZnH30C45(NO)4
_chemical_formula_sum   'Zn2 H60 C90 N8 O8'
_cell_volume   2623.47064713
_cell_formula_units_Z   2
loop_
 _symmetry_equiv_pos_site_id
 _symmetry_equiv_pos_as_xyz
  1  'x, y, z'
loop_
 _atom_site_type_symbol
 _atom_site_label
 _atom_site_symmetry_multiplicity
 _atom_site_fract_x
 _atom_site_fract_y
 _atom_site_fract_z
 _atom_site_occupancy
 _atom_site_pbe_bader_charge
 _atom_site_pbe_bader_spin_density
 _atom_site_pbe_cm5_charge
 _atom_site_pbe_ddec_charge
 _atom_site_pbe_ddec_spin_density
 _atom_site_pbe_ddec_sum_bond_order
 _atom_site_pbe_magmom
Zn  Zn0  1  0.25000298  0.87914981  0.12085718  1  1.247834  0  0.698552  0.754579  0  2.421851  0
Zn  Zn1  1  0.74999698  0.12086252  0.87914070  1  1.248027  0  0.698437  0.754367  0  2.421796  0
H  H2  1  0.31614355  0.61846760  0.13654525  1  0.115915  0  0.105016  0.115186  0  1.001387  0
H  H3  1  0.18385025  0.86345355  0.38152846  1  0.115992  0  0.104984  0.115177  0  1.001457  0
H  H4  1  0.68385922  0.38153715  0.86345591  1  0.116004  0  0.105013  0.115188  0  1.001349  0
H  H5  1  0.81614041  0.13654822  0.61847195  1  0.115844  0  0.105014  0.115214  0  1.001325  0
H  H6  1  0.37558555  0.46252113  0.12218437  1  0.044795  0  0.10334  0.10561  0  0.987612  0
H  H7  1  0.12440844  0.87781019  0.53747292  1  0.045169  0  0.103355  0.105613  0  0.987638  0
H  H8  1  0.62440771  0.53748522  0.87781222  1  0.044702  0  0.103352  0.105608  0  0.987602  0
H  H9  1  0.87558530  0.12219167  0.46252122  1  0.045149  0  0.103357  0.105601  0  0.987453  0
H  H10  1  0.48574964  0.34030281  0.05385913  1  0.09366  0  0.105018  0.108901  0  1.014064  0
H  H11  1  0.01425003  0.94613516  0.65968966  1  0.093792  0  0.104982  0.108885  0  1.014049  0
H  H12  1  0.51424411  0.65968920  0.94613902  1  0.093779  0  0.105022  0.108924  0  1.014048  0
H  H13  1  0.98574407  0.05385837  0.34030781  1  0.093717  0  0.104991  0.108917  0  1.014103  0
H  H14  1  0.18506627  0.68974397  0.94667792  1  0.078077  0  0.120024  0.09068  0  1.002691  0
H  H15  1  0.31492782  0.05333706  0.31025873  1  0.078079  0  0.120009  0.090649  0  1.002735  0
H  H16  1  0.81493003  0.31025920  0.05332847  1  0.077869  0  0.120038  0.090689  0  1.002872  0
H  H17  1  0.68507335  0.94667067  0.68974478  1  0.078494  0  0.119997  0.090664  0  1.002759  0
H  H18  1  0.06903176  0.61470292  0.78021722  1  0.082378  0  0.107415  0.111932  0  1.014225  0
H  H19  1  0.43095994  0.21979368  0.38529412  1  0.082295  0  0.107372  0.111899  0  1.014105  0
H  H20  1  0.93095747  0.38530257  0.21978654  1  0.082299  0  0.107389  0.111926  0  1.013994  0
H  H21  1  0.56904722  0.78021029  0.61470794  1  0.082337  0  0.107366  0.111947  0  1.014085  0
H  H22  1  0.98461275  0.90197319  0.85074202  1  0.135268  0  0.112425  0.131957  0  1.030554  0
H  H23  1  0.51538121  0.14926107  0.09803079  1  0.1353  0  0.112448  0.131916  0  1.030578  0
H  H24  1  0.01537669  0.09803315  0.14925542  1  0.135442  0  0.112428  0.131885  0  1.030537  0
H  H25  1  0.48462823  0.85074288  0.90197222  1  0.135457  0  0.112488  0.131966  0  1.030627  0
H  H26  1  0.10493491  0.96368532  0.01576103  1  0.135268  0  0.120928  0.091081  0  1.001404  0
H  H27  1  0.39505607  0.98424703  0.03631613  1  0.135366  0  0.120953  0.09108  0  1.001297  0
H  H28  1  0.89505856  0.03631872  0.98423865  1  0.135347  0  0.120933  0.091086  0  1.001265  0
H  H29  1  0.60494670  0.01575770  0.96368569  1  0.135317  0  0.120945  0.091092  0  1.001439  0
H  H30  1  0.97457995  0.55931710  0.64955067  1  0.04486  0  0.101278  0.098244  0  1.016532  0
H  H31  1  0.52541148  0.35045647  0.44068744  1  0.044621  0  0.10121  0.098136  0  1.016439  0
H  H32  1  0.02541312  0.44068528  0.35045834  1  0.044612  0  0.101234  0.098173  0  1.016434  0
H  H33  1  0.47459049  0.64954149  0.55931418  1  0.044191  0  0.101207  0.098166  0  1.016429  0
H  H34  1  0.86192989  0.49222849  0.48339310  1  0.077449  0  0.10605  0.115899  0  0.998309  0
H  H35  1  0.63808225  0.51660866  0.50777482  1  0.07749  0  0.106018  0.11596  0  0.998115  0
H  H36  1  0.13807411  0.50777168  0.51661103  1  0.077486  0  0.10604  0.115924  0  0.998246  0
H  H37  1  0.36192503  0.48338925  0.49222946  1  0.077512  0  0.106033  0.115913  0  0.998257  0
H  H38  1  0.78168613  0.77860231  0.55042105  1  0.063822  0  0.107154  0.116413  0  0.995597  0
H  H39  1  0.71831610  0.44958372  0.22140235  1  0.064092  0  0.107134  0.11641  0  0.99554  0
H  H40  1  0.21832529  0.22140694  0.44958036  1  0.063945  0  0.107112  0.116402  0  0.995526  0
H  H41  1  0.28168562  0.55041647  0.77860149  1  0.063991  0  0.107134  0.116436  0  0.995552  0
H  H42  1  0.89323061  0.84720958  0.71721599  1  0.131696  0  0.102495  0.112503  0  1.063647  0
H  H43  1  0.60676306  0.28278623  0.15278545  1  0.131701  0  0.102508  0.112541  0  1.063529  0
H  H44  1  0.10677638  0.15278700  0.28277766  1  0.13163  0  0.102506  0.112556  0  1.063463  0
H  H45  1  0.39324036  0.71721473  0.84721691  1  0.131685  0  0.102511  0.112559  0  1.063535  0
H  H46  1  0.91294853  0.72231421  0.41192921  1  0.073035  0  0.101204  0.109107  0  1.015244  0
H  H47  1  0.58705459  0.58807077  0.27767599  1  0.073198  0  0.101243  0.109188  0  1.015336  0
H  H48  1  0.08705011  0.27767258  0.58806541  1  0.072818  0  0.101235  0.109166  0  1.015261  0
H  H49  1  0.41294838  0.41192493  0.72232551  1  0.073288  0  0.101229  0.109113  0  1.015302  0
H  H50  1  0.91252464  0.82107069  0.31423781  1  0.084903  0  0.096451  0.09396  0  1.060173  0
H  H51  1  0.58747328  0.68576906  0.17893308  1  0.084775  0  0.096523  0.094018  0  1.06016  0
H  H52  1  0.08747757  0.17892502  0.68576292  1  0.084904  0  0.096465  0.093983  0  1.060267  0
H  H53  1  0.41252114  0.31422590  0.82106903  1  0.084812  0  0.096531  0.094044  0  1.060138  0
H  H54  1  0.58713731  0.83108474  0.17079670  1  0.075906  0  0.103578  0.11254  0  1.013466  0
H  H55  1  0.91286460  0.82920775  0.16892015  1  0.076052  0  0.10352  0.112496  0  1.013562  0
H  H56  1  0.41285965  0.16891787  0.82919749  1  0.076003  0  0.103556  0.112551  0  1.013508  0
H  H57  1  0.08713811  0.17079018  0.83108356  1  0.076087  0  0.103541  0.112533  0  1.0135  0
H  H58  1  0.59364341  0.92856990  0.07158180  1  0.066044  0  0.10241  0.069132  0  1.021344  0
H  H59  1  0.90636665  0.92841431  0.07143037  1  0.066261  0  0.102399  0.069102  0  1.021414  0
H  H60  1  0.40636555  0.07143190  0.92841424  1  0.066211  0  0.102441  0.069149  0  1.021477  0
H  H61  1  0.09364209  0.07157994  0.92856658  1  0.066362  0  0.102413  0.069182  0  1.02133  0
C  C62  1  0.37604386  0.74166221  0.05263400  1  1.55113  0  0.195634  0.550998  0  4.256894  0
C  C63  1  0.12394943  0.94736471  0.25833687  1  1.551076  0  0.19557  0.550938  0  4.2571  0
C  C64  1  0.62395388  0.25834044  0.94735762  1  1.551231  0  0.195504  0.550594  0  4.257755  0
C  C65  1  0.87605475  0.05263623  0.74166626  1  1.551074  0  0.195452  0.550654  0  4.257728  0
C  C66  1  0.41205862  0.64746195  0.04142368  1  -0.058095  0  -0.023729  -0.041426  0  4.0002  0
C  C67  1  0.08793347  0.95857595  0.35253238  1  -0.058778  0  -0.023807  -0.041478  0  4.000624  0
C  C68  1  0.58792996  0.35253747  0.95858288  1  -0.058656  0  -0.023899  -0.041574  0  4.000682  0
C  C69  1  0.91207105  0.04142651  0.64747074  1  -0.059059  0  -0.02387  -0.041579  0  4.000659  0
C  C70  1  0.37269267  0.59137733  0.09172843  1  -0.029373  0  -0.089896  -0.103319  0  3.998773  0
C  C71  1  0.12730726  0.90827557  0.40861809  1  -0.029502  0  -0.089954  -0.10349  0  3.998974  0
C  C72  1  0.62730652  0.40862513  0.90827535  1  -0.02958  0  -0.089838  -0.103267  0  3.998422  0
C  C73  1  0.87269298  0.09173141  0.59138500  1  -0.028747  0  -0.089917  -0.103401  0  3.998792  0
C  C74  1  0.40589269  0.50579967  0.08382898  1  -0.049953  0  -0.090101  -0.132365  0  3.997252  0
C  C75  1  0.09410257  0.91617300  0.49420108  1  -0.049875  0  -0.089995  -0.132177  0  3.996958  0
C  C76  1  0.59410297  0.49420730  0.91617554  1  -0.049599  0  -0.089997  -0.132282  0  3.997058  0
C  C77  1  0.90589283  0.08382950  0.50580023  1  -0.050228  0  -0.090039  -0.132279  0  3.996852  0
C  C78  1  0.48021963  0.47185690  0.02562380  1  0.003738  0  -0.005579  0.075171  0  3.997457  0
C  C79  1  0.01977244  0.97437780  0.52814323  1  0.004117  0  -0.005696  0.075084  0  3.997461  0
C  C80  1  0.51976710  0.52814104  0.97438125  1  -0.04917  0  -0.005724  0.075187  0  3.997555  0
C  C81  1  0.98022292  0.02561793  0.47185798  1  -0.049976  0  -0.005593  0.075255  0  3.997245  0
C  C82  1  0.51603338  0.38433641  0.01633051  1  -0.047748  0  -0.077564  -0.139633  0  3.945838  0
C  C83  1  0.98396467  0.98366830  0.61566340  1  -0.048014  0  -0.077494  -0.139556  0  3.945559  0
C  C84  1  0.48395472  0.61566086  0.98366907  1  -0.048827  0  -0.077586  -0.139715  0  3.945575  0
C  C85  1  0.01603140  0.01633045  0.38433646  1  -0.047807  0  -0.077532  -0.139679  0  3.94551  0
C  C86  1  0.13899116  0.73382450  0.92188965  1  0.466195  0  0.045636  0.098299  0  3.965561  0
C  C87  1  0.36099856  0.07811878  0.26617491  1  0.46612  0  0.045619  0.098265  0  3.965713  0
C  C88  1  0.86100680  0.26618250  0.07811249  1  0.466201  0  0.045589  0.098282  0  3.965592  0
C  C89  1  0.63900015  0.92188821  0.73382799  1  0.465769  0  0.045676  0.098246  0  3.965591  0
C  C90  1  0.07310568  0.69267806  0.82856055  1  -0.000572  0  -0.087897  -0.184758  0  3.962569  0
C  C91  1  0.42688909  0.17144089  0.30731735  1  -0.000507  0  -0.087826  -0.184714  0  3.962521  0
C  C92  1  0.92688904  0.30732146  0.17143879  1  -0.000573  0  -0.087885  -0.184798  0  3.962479  0
C  C93  1  0.57311264  0.82855934  0.69268384  1  -0.000664  0  -0.087875  -0.184831  0  3.962414  0
C  C94  1  0.01391947  0.75089887  0.79799724  1  -0.012713  0  0.016927  0.124691  0  3.966774  0
C  C95  1  0.48607184  0.20200695  0.24909994  1  -0.012695  0  0.016931  0.124756  0  3.966732  0
C  C96  1  0.98607324  0.24910517  0.20200235  1  -0.012943  0  0.01698  0.12482  0  3.966919  0
C  C97  1  0.51393024  0.79799477  0.75090190  1  -0.012703  0  0.016937  0.124763  0  3.966756  0
C  C98  1  0.02625326  0.85087878  0.86796889  1  -0.051814  0  -0.081202  -0.177517  0  3.893952  0
C  C99  1  0.47373859  0.13203791  0.14911972  1  -0.05197  0  -0.081313  -0.177544  0  3.893745  0
C  C100  1  0.97374766  0.14912451  0.13202942  1  -0.051451  0  -0.081189  -0.177423  0  3.893649  0
C  C101  1  0.52625959  0.86796013  0.85087811  1  -0.052012  0  -0.081356  -0.177547  0  3.893817  0
C  C102  1  0.09395426  0.88684868  0.96034708  1  0.481546  0  0.053225  0.104531  0  3.95559  0
C  C103  1  0.40604332  0.03965863  0.11315375  1  0.481079  0  0.053295  0.104655  0  3.955373  0
C  C104  1  0.90603598  0.11315456  0.03965589  1  0.480708  0  0.05319  0.104521  0  3.955545  0
C  C105  1  0.59395968  0.96034383  0.88684918  1  0.480695  0  0.053268  0.104482  0  3.95537  0
C  C106  1  0.94438131  0.70937233  0.69836931  1  -0.000827  0  -0.017621  0.036332  0  4.000616  0
C  C107  1  0.55560766  0.30163277  0.29062479  1  -5.7e-05  0  -0.017682  0.036282  0  4.000175  0
C  C108  1  0.05561893  0.29062800  0.30162570  1  -0.000213  0  -0.017613  0.036345  0  4.000453  0
C  C109  1  0.44439737  0.69836523  0.70937456  1  -0.000157  0  -0.017579  0.03652  0  4.00028  0
C  C110  1  0.93263785  0.60889863  0.62987258  1  0.034923  0  -0.088797  -0.108352  0  4.003365  0
C  C111  1  0.56735398  0.37013728  0.39109986  1  0.034856  0  -0.088707  -0.108071  0  4.003362  0
C  C112  1  0.06736232  0.39110149  0.37013573  1  0.035235  0  -0.088827  -0.10824  0  4.003557  0
C  C113  1  0.43265694  0.62985990  0.60890257  1  0.035485  0  -0.08879  -0.108317  0  4.003371  0
C  C114  1  0.86888262  0.56994514  0.53521464  1  -0.111181  0  -0.098463  -0.180766  0  4.010444  0
C  C115  1  0.63112265  0.46477736  0.43004614  1  -0.11128  0  -0.098538  -0.181133  0  4.011122  0
C  C116  1  0.13111302  0.43004843  0.46478036  1  -0.111638  0  -0.09849  -0.180971  0  4.01099  0
C  C117  1  0.36888525  0.53521988  0.56995326  1  -0.111257  0  -0.098468  -0.180911  0  4.010822  0
C  C118  1  0.81374284  0.63075850  0.50522266  1  0.331954  0  0.09508  0.184551  0  4.043974  0
C  C119  1  0.68626662  0.49477989  0.36924428  1  0.331974  0  0.09514  0.184555  0  4.04409  0
C  C120  1  0.18626064  0.36923943  0.49478048  1  0.331893  0  0.09511  0.184622  0  4.043719  0
C  C121  1  0.31374202  0.50521730  0.63075788  1  0.331903  0  0.095104  0.184642  0  4.043623  0
C  C122  1  0.82400158  0.73072183  0.57281056  1  -0.025518  0  -0.094595  -0.171483  0  3.993416  0
C  C123  1  0.67599502  0.42718448  0.26927668  1  -0.019601  0  -0.094593  -0.171456  0  3.993708  0
C  C124  1  0.17599962  0.26927931  0.42718088  1  -0.025552  0  -0.094543  -0.17141  0  3.993429  0
C  C125  1  0.32400484  0.57281425  0.73072432  1  -0.019448  0  -0.094619  -0.17157  0  3.9935  0
C  C126  1  0.88784786  0.76906264  0.66743745  1  -0.036236  0  -0.085111  -0.103322  0  3.956927  0
C  C127  1  0.61214610  0.33257189  0.23093374  1  -0.042676  0  -0.085102  -0.103392  0  3.956886  0
C  C128  1  0.11215845  0.23093763  0.33256098  1  -0.036217  0  -0.085129  -0.10347  0  3.956824  0
C  C129  1  0.38785668  0.66743289  0.76906542  1  -0.042744  0  -0.0851  -0.103443  0  3.956908  0
C  C130  1  0.74999938  0.64810079  0.35191093  1  0.312495  0  0.088401  0.173095  0  4.044842  0
C  C131  1  0.25000429  0.35189793  0.64808988  1  0.312841  0  0.088385  0.173082  0  4.04488  0
C  C132  1  0.84143462  0.71397986  0.36071506  1  -0.010187  0  -0.101573  -0.178032  0  4.007765  0
C  C133  1  0.65856293  0.63928189  0.28602049  1  -0.01028  0  -0.101634  -0.178135  0  4.007476  0
C  C134  1  0.15856604  0.28601231  0.63927198  1  -0.010336  0  -0.10155  -0.177961  0  4.007578  0
C  C135  1  0.34143259  0.36071457  0.71398171  1  -0.010301  0  -0.101567  -0.177913  0  4.007461  0
C  C136  1  0.84096898  0.76949705  0.30496914  1  -0.069136  0  -0.087614  -0.103865  0  3.978037  0
C  C137  1  0.65902442  0.69503449  0.23050313  1  -0.069113  0  -0.087718  -0.103984  0  3.977947  0
C  C138  1  0.15902566  0.23049879  0.69502466  1  -0.069123  0  -0.087697  -0.104031  0  3.978139  0
C  C139  1  0.34097044  0.30496568  0.76950252  1  -0.069147  0  -0.087743  -0.104057  0  3.977954  0
C  C140  1  0.74999567  0.76129308  0.23870521  1  -0.045611  0  -0.014529  0.050519  0  3.992644  0
C  C141  1  0.24999682  0.23869675  0.76128853  1  -0.045651  0  -0.014661  0.050329  0  3.992642  0
C  C142  1  0.74999539  0.82035674  0.17964873  1  -0.020275  0  0.005096  0.104369  0  3.996876  0
C  C143  1  0.24999996  0.17963897  0.82035381  1  -0.020654  0  0.005272  0.104505  0  3.996897  0
C  C144  1  0.65998091  0.85011698  0.15008897  1  -0.055664  0  -0.09235  -0.180951  0  3.948661  0
C  C145  1  0.84001688  0.84990390  0.14988164  1  -0.056251  0  -0.092225  -0.180899  0  3.948355  0
C  C146  1  0.34001859  0.14987354  0.84990729  1  -0.055783  0  -0.092304  -0.18098  0  3.948764  0
C  C147  1  0.15998108  0.15007988  0.85011233  1  -0.055315  0  -0.092291  -0.180822  0  3.948693  0
C  C148  1  0.66405389  0.90597106  0.09443811  1  0.510069  0  0.030702  0.088499  0  4.020112  0
C  C149  1  0.83595562  0.90556130  0.09403257  1  0.511152  0  0.030634  0.088471  0  4.020052  0
C  C150  1  0.33595987  0.09403512  0.90556569  1  0.510791  0  0.030602  0.08847  0  4.020273  0
C  C151  1  0.16405148  0.09442919  0.90596463  1  0.509569  0  0.03063  0.088281  0  4.020433  0
N  N152  1  0.15015562  0.82974650  0.98767454  1  -1.281107  0  -0.335687  -0.23614  0  3.596071  0
N  N153  1  0.34984373  0.01233168  0.17025185  1  -1.280509  0  -0.335678  -0.236137  0  3.596021  0
N  N154  1  0.84984383  0.17025373  0.01232702  1  -1.28063  0  -0.335672  -0.236177  0  3.595961  0
N  N155  1  0.65015981  0.98767309  0.82974807  1  -1.280266  0  -0.335667  -0.235988  0  3.595863  0
N  N156  1  0.75000367  0.59141686  0.40858835  1  -1.233344  0  -0.250678  -0.149374  0  3.692445  0
N  N157  1  0.24999804  0.40858332  0.59141549  1  -1.233367  0  -0.250688  -0.149515  0  3.692325  0
N  N158  1  0.75000350  0.93421165  0.06578070  1  -1.181367  0  -0.339149  -0.303468  0  3.341326  0
N  N159  1  0.25000271  0.06577819  0.93421076  1  -1.181448  0  -0.339151  -0.303446  0  3.341349  0
O  O160  1  0.31163873  0.76447788  0.11165779  1  -1.160126  0  -0.33947  -0.546234  0  2.328766  0
O  O161  1  0.18835241  0.88833395  0.23552807  1  -1.160015  0  -0.339365  -0.546173  0  2.328505  0
O  O162  1  0.68836534  0.23553238  0.88832770  1  -1.160386  0  -0.33922  -0.545873  0  2.328436  0
O  O163  1  0.81164283  0.11166781  0.76447225  1  -1.160107  0  -0.339246  -0.546029  0  2.328451  0
O  O164  1  0.40654483  0.79137648  0.00688704  1  -1.195707  0  -0.328463  -0.572793  0  2.171554  0
O  O165  1  0.09345180  0.99311216  0.20862353  1  -1.195775  0  -0.328416  -0.572674  0  2.171568  0
O  O166  1  0.59346968  0.20862620  0.99310002  1  -1.19535  0  -0.328444  -0.572568  0  2.172242  0
O  O167  1  0.90653949  0.00689563  0.79137675  1  -1.195695  0  -0.328377  -0.572502  0  2.172339  0
