# generated using pymatgen
data_ZnH26(C7N)6
_symmetry_space_group_name_H-M   'P 1'
_cell_length_a   9.41253822
_cell_length_b   19.27777414
_cell_length_c   19.27356996
_cell_angle_alpha   117.41408705
_cell_angle_beta   99.35360072
_cell_angle_gamma   99.37675843
_symmetry_Int_Tables_number   1
_chemical_formula_structural   ZnH26(C7N)6
_chemical_formula_sum   'Zn3 H78 C126 N18'
_cell_volume   2948.22314872
_cell_formula_units_Z   3
loop_
 _symmetry_equiv_pos_site_id
 _symmetry_equiv_pos_as_xyz
  1  'x, y, z'
loop_
 _atom_site_type_symbol
 _atom_site_label
 _atom_site_symmetry_multiplicity
 _atom_site_fract_x
 _atom_site_fract_y
 _atom_site_fract_z
 _atom_site_occupancy
 _atom_site_pbe_bader_charge
 _atom_site_pbe_bader_spin_density
 _atom_site_pbe_cm5_charge
 _atom_site_pbe_ddec_charge
 _atom_site_pbe_ddec_spin_density
 _atom_site_pbe_ddec_sum_bond_order
 _atom_site_pbe_magmom
Zn  Zn0  1  0.00000054  0.49999996  0.99999962  1  1.246693  0  0.698634  0.591926  0  2.629494  0
Zn  Zn1  1  0.49999933  0.50000005  0.50000016  1  1.244945  0  0.698361  0.590876  0  2.629433  0
Zn  Zn2  1  0.00000041  0.00000012  0.50000041  1  1.249297  0  0.698327  0.59015  0  2.628368  0
H  H3  1  0.96551727  0.40168219  0.21328467  1  0.090449  0  0.097493  0.117306  0  1.047083  0
H  H4  1  0.56351699  0.81150572  0.59810055  1  0.073531  0  0.098037  0.117284  0  1.047016  0
H  H5  1  0.75171964  0.78650686  0.18841883  1  0.108051  0  0.098157  0.116912  0  1.047674  0
H  H6  1  0.03448324  0.59831730  0.78671448  1  0.090434  0  0.097475  0.117287  0  1.047092  0
H  H7  1  0.43648137  0.18849376  0.40190051  1  0.073478  0  0.098022  0.117248  0  1.047061  0
H  H8  1  0.24827980  0.21349263  0.81158127  1  0.108054  0  0.098155  0.116898  0  1.047683  0
H  H9  1  0.68461859  0.34832888  0.11948645  1  0.095956  0  0.099124  0.118017  0  1.027716  0
H  H10  1  0.33611087  0.77101867  0.65158224  1  0.090196  0  0.100282  0.119365  0  1.026559  0
H  H11  1  0.56481095  0.88042874  0.22894943  1  0.098357  0  0.100027  0.118346  0  1.026961  0
H  H12  1  0.31538253  0.65167182  0.88051383  1  0.095939  0  0.099123  0.118008  0  1.027709  0
H  H13  1  0.66388917  0.22898204  0.34841951  1  0.090215  0  0.100262  0.119305  0  1.026626  0
H  H14  1  0.43518848  0.11957075  0.77105068  1  0.098359  0  0.100038  0.118344  0  1.02698  0
H  H15  1  0.42274666  0.35158668  0.85097689  1  0.08685  0  0.097649  0.111448  0  1.055488  0
H  H16  1  0.07100744  0.49942400  0.64835549  1  0.084135  0  0.097833  0.111176  0  1.055676  0
H  H17  1  0.57180126  0.14896325  0.50077699  1  0.080404  0  0.09791  0.112091  0  1.054745  0
H  H18  1  0.57725369  0.64841463  0.14902361  1  0.086845  0  0.097655  0.111462  0  1.055456  0
H  H19  1  0.92899230  0.50057609  0.35164492  1  0.084156  0  0.097837  0.111166  0  1.055648  0
H  H20  1  0.42819987  0.85103745  0.49922277  1  0.080413  0  0.097927  0.112105  0  1.054733  0
H  H21  1  0.51603776  0.42140232  0.76730136  1  0.084229  0  0.101072  0.120585  0  1.018407  0
H  H22  1  0.09443668  0.34594569  0.57864274  1  0.049535  0  0.10047  0.119572  0  1.01835  0
H  H23  1  0.74864719  0.23268098  0.65426608  1  0.080933  0  0.10046  0.119995  0  1.018667  0
H  H24  1  0.48396198  0.57859778  0.23269749  1  0.084259  0  0.101078  0.120592  0  1.01842  0
H  H25  1  0.90556276  0.65405379  0.42135788  1  0.049563  0  0.100465  0.119553  0  1.018351  0
H  H26  1  0.25135225  0.76731851  0.34573351  1  0.080921  0  0.100448  0.119965  0  1.018675  0
H  H27  1  0.39777547  0.42948999  0.01172945  1  0.084657  0  0.098255  0.103763  0  1.034233  0
H  H28  1  0.96844822  0.58232973  0.57048584  1  0.080929  0  0.097996  0.103986  0  1.034499  0
H  H29  1  0.38600739  0.98827336  0.41783361  1  0.085725  0  0.098198  0.103815  0  1.034052  0
H  H30  1  0.60222319  0.57051011  0.98827140  1  0.084678  0  0.098266  0.10375  0  1.034246  0
H  H31  1  0.03155015  0.41766976  0.42951367  1  0.08093  0  0.097993  0.103975  0  1.034513  0
H  H32  1  0.61399666  0.01172674  0.58216559  1  0.085671  0  0.09818  0.103753  0  1.034124  0
H  H33  1  0.16474764  0.34493547  0.00681881  1  0.06614  0  0.099946  0.101754  0  1.025477  0
H  H34  1  0.82012865  0.66195067  0.65517620  1  0.046716  0  0.099802  0.10087  0  1.026972  0
H  H35  1  0.15805079  0.99325685  0.33820229  1  0.07689  0  0.10024  0.101916  0  1.026535  0
H  H36  1  0.83525102  0.65506463  0.99318204  1  0.066158  0  0.099934  0.101724  0  1.025518  0
H  H37  1  0.17987139  0.33805004  0.34482452  1  0.046721  0  0.099802  0.10087  0  1.026966  0
H  H38  1  0.84195248  0.00674385  0.66179816  1  0.076977  0  0.100241  0.101894  0  1.026544  0
H  H39  1  0.14565073  0.20222181  0.97536017  1  0.05297  0  0.097896  0.0942  0  0.99801  0
H  H40  1  0.94381894  0.77305199  0.79796839  1  0.024362  0  0.098071  0.094721  0  0.998408  0
H  H41  1  0.17076415  0.02498821  0.22712766  1  0.026409  0  0.098506  0.094573  0  0.996669  0
H  H42  1  0.85434871  0.79777768  0.02463942  1  0.052976  0  0.097897  0.094219  0  0.998002  0
H  H43  1  0.05618326  0.22694872  0.20203146  1  0.024352  0  0.098075  0.094725  0  0.9984  0
H  H44  1  0.82923866  0.97501371  0.77287332  1  0.026405  0  0.098482  0.094557  0  0.996608  0
H  H45  1  0.36368449  0.14537802  0.94840962  1  0.041538  0  0.097781  0.092192  0  0.997989  0
H  H46  1  0.21868236  0.80287199  0.85476958  1  0.047505  0  0.097429  0.09255  0  0.997408  0
H  H47  1  0.41581165  0.05196407  0.19730772  1  0.050294  0  0.097311  0.091938  0  0.998225  0
H  H48  1  0.63631525  0.85462207  0.05158924  1  0.041521  0  0.097793  0.092211  0  0.997973  0
H  H49  1  0.78131877  0.19712871  0.14523018  1  0.045924  0  0.097422  0.092542  0  0.997411  0
H  H50  1  0.58418917  0.94803603  0.80269122  1  0.05033  0  0.097333  0.091962  0  0.998216  0
H  H51  1  0.59880776  0.23146219  0.95566571  1  0.039004  0  0.098435  0.097942  0  1.00086  0
H  H52  1  0.36759329  0.72403583  0.76855276  1  0.055387  0  0.099139  0.098844  0  1.000804  0
H  H53  1  0.64350569  0.04443425  0.27600391  1  0.042055  0  0.098533  0.097976  0  1.000471  0
H  H54  1  0.40119121  0.76853852  0.04433388  1  0.038964  0  0.098422  0.097919  0  1.000856  0
H  H55  1  0.63240723  0.27596365  0.23144692  1  0.055399  0  0.099147  0.098838  0  1.00082  0
H  H56  1  0.35649651  0.95556645  0.72399490  1  0.042103  0  0.098542  0.098009  0  1.000458  0
H  H57  1  0.13566821  0.57487671  0.31450253  1  0.0886  0  0.107393  0.119386  0  0.990517  0
H  H58  1  0.56074730  0.73964018  0.42522804  1  0.073606  0  0.108749  0.119951  0  0.990738  0
H  H59  1  0.82123745  0.68543816  0.26028229  1  0.071157  0  0.10816  0.119034  0  0.988562  0
H  H60  1  0.86433184  0.42512399  0.68549766  1  0.088613  0  0.107378  0.119372  0  0.990529  0
H  H61  1  0.43925137  0.26035992  0.57477176  1  0.073627  0  0.108765  0.119978  0  0.99074  0
H  H62  1  0.17876199  0.31456132  0.73971730  1  0.071151  0  0.108145  0.119014  0  0.988577  0
H  H63  1  0.46784806  0.40262633  0.31158169  1  0.069477  0  0.110338  0.07554  0  1.029931  0
H  H64  1  0.06535243  0.90900861  0.59732054  1  0.124494  0  0.110614  0.07482  0  1.028762  0
H  H65  1  0.15642216  0.68838215  0.09091017  1  0.09406  0  0.110446  0.075622  0  1.030475  0
H  H66  1  0.53215276  0.59737376  0.68841776  1  0.069454  0  0.110317  0.075507  0  1.029939  0
H  H67  1  0.93464670  0.09099027  0.40267978  1  0.124492  0  0.11062  0.074831  0  1.028758  0
H  H68  1  0.84357651  0.31161794  0.90908964  1  0.094143  0  0.110444  0.075625  0  1.030466  0
H  H69  1  0.25055589  0.56987231  0.43839725  1  0.098615  0  0.11512  0.0848  0  1.007952  0
H  H70  1  0.68080472  0.86841026  0.43005144  1  0.093084  0  0.113932  0.08471  0  1.00759  0
H  H71  1  0.81254041  0.56152867  0.13143159  1  0.106236  0  0.114824  0.085254  0  1.008706  0
H  H72  1  0.74944216  0.43012657  0.56160247  1  0.098643  0  0.115162  0.08486  0  1.007904  0
H  H73  1  0.31919503  0.13158983  0.56994949  1  0.093085  0  0.11392  0.084706  0  1.007566  0
H  H74  1  0.18745903  0.43847082  0.86856748  1  0.106243  0  0.114828  0.085269  0  1.008702  0
H  H75  1  0.36263210  0.40038916  0.18197253  1  0.096112  0  0.106962  0.119184  0  1.004401  0
H  H76  1  0.96257464  0.78152476  0.59941052  1  0.075755  0  0.106701  0.118767  0  1.00345  0
H  H77  1  0.18083551  0.81795351  0.21835174  1  0.104925  0  0.106115  0.117978  0  1.003991  0
H  H78  1  0.63736656  0.59961093  0.81802727  1  0.096093  0  0.106948  0.119187  0  1.004416  0
H  H79  1  0.03742466  0.21847230  0.40058742  1  0.076062  0  0.1067  0.118781  0  1.003437  0
H  H80  1  0.81916423  0.18204658  0.78164815  1  0.104924  0  0.106123  0.117962  0  1.003999  0
C  C81  1  0.01664947  0.44809715  0.12883368  1  0.478513  0  0.08787  0.179815  0  4.050538  0
C  C82  1  0.56843415  0.68069538  0.55173242  1  0.44661  0  0.08644  0.178022  0  4.051493  0
C  C83  1  0.88742157  0.87093786  0.31925453  1  0.451871  0  0.08532  0.175731  0  4.051776  0
C  C84  1  0.98335058  0.55190355  0.87116652  1  0.478496  0  0.087897  0.179871  0  4.050511  0
C  C85  1  0.43156452  0.31930472  0.44826842  1  0.446614  0  0.086433  0.178002  0  4.051399  0
C  C86  1  0.11257786  0.12906162  0.68074558  1  0.451804  0  0.085327  0.175743  0  4.051712  0
C  C87  1  0.92588670  0.40833069  0.16117423  1  -0.129134  0  -0.108966  -0.189374  0  3.984303  0
C  C88  1  0.51729349  0.75275177  0.59146396  1  -0.095071  0  -0.109541  -0.187917  0  3.980988  0
C  C89  1  0.76422036  0.83860401  0.24720187  1  -0.08463  0  -0.110313  -0.188888  0  3.985436  0
C  C90  1  0.07411273  0.59166880  0.83882484  1  -0.129145  0  -0.108932  -0.189359  0  3.984148  0
C  C91  1  0.48270733  0.24724832  0.40853757  1  -0.09502  0  -0.109517  -0.1879  0  3.980908  0
C  C92  1  0.23577800  0.16139547  0.75279815  1  -0.084639  0  -0.110293  -0.18885  0  3.985451  0
C  C93  1  0.78274234  0.38017792  0.11271286  1  -0.057318  0  -0.110042  -0.189477  0  3.995515  0
C  C94  1  0.40237615  0.73243437  0.61967271  1  -0.096437  0  -0.11133  -0.191863  0  3.990725  0
C  C95  1  0.66962659  0.88711367  0.26755962  1  -0.119425  0  -0.109815  -0.18785  0  3.99458  0
C  C96  1  0.21725771  0.61982278  0.88728681  1  -0.057316  0  -0.110059  -0.189497  0  3.995437  0
C  C97  1  0.59762497  0.26756634  0.38032861  1  -0.096427  0  -0.111326  -0.191775  0  3.990717  0
C  C98  1  0.33037177  0.11288582  0.73244092  1  -0.119403  0  -0.109811  -0.18781  0  3.994594  0
C  C99  1  0.78493569  0.40241053  0.05042166  1  0.415513  0  0.087076  0.169903  0  4.055101  0
C  C100  1  0.38250021  0.64794170  0.59747146  1  0.447205  0  0.088128  0.172215  0  4.054903  0
C  C101  1  0.73427771  0.94944722  0.35206541  1  0.429092  0  0.085269  0.166549  0  4.05589  0
C  C102  1  0.21506297  0.59758956  0.94957762  1  0.415524  0  0.087075  0.169888  0  4.055216  0
C  C103  1  0.61750199  0.35205900  0.40253098  1  0.447201  0  0.08811  0.172145  0  4.054906  0
C  C104  1  0.26572173  0.05055226  0.64793418  1  0.429113  0  0.085229  0.166433  0  4.055939  0
C  C105  1  0.65768280  0.38765654  0.99001035  1  0.019011  0  -0.001105  -0.079988  0  3.927009  0
C  C106  1  0.27010739  0.60228624  0.61227121  1  -0.010482  0  -0.002373  -0.081793  0  3.927951  0
C  C107  1  0.66770528  0.00999292  0.39779979  1  0.035618  0  -0.001029  -0.080022  0  3.926338  0
C  C108  1  0.34231587  0.61234355  0.00998946  1  0.019026  0  -0.001055  -0.079813  0  3.9269  0
C  C109  1  0.72989282  0.39771264  0.38772919  1  -0.010444  0  -0.002399  -0.081861  0  3.928011  0
C  C110  1  0.33229661  0.99000718  0.60219975  1  0.035607  0  -0.001076  -0.079982  0  3.926315  0
C  C111  1  0.65706585  0.41595738  0.93407523  1  0.404414  0  0.089458  0.17557  0  4.046747  0
C  C112  1  0.24108068  0.51807005  0.58398311  1  0.425947  0  0.087056  0.17561  0  4.047441  0
C  C113  1  0.72308968  0.06593108  0.48203660  1  0.445875  0  0.088345  0.177263  0  4.04616  0
C  C114  1  0.34293359  0.58404210  0.06592436  1  0.404456  0  0.089418  0.175402  0  4.046762  0
C  C115  1  0.75891953  0.48192883  0.41601730  1  0.425885  0  0.087088  0.175687  0  4.047316  0
C  C116  1  0.27690899  0.93406901  0.51796269  1  0.445904  0  0.088389  0.177284  0  4.046107  0
C  C117  1  0.53151426  0.39177313  0.86549391  1  -0.051371  0  -0.108737  -0.185362  0  3.98592  0
C  C118  1  0.13958704  0.47372495  0.60816492  1  -0.048188  0  -0.107682  -0.184763  0  3.984509  0
C  C119  1  0.66603586  0.13446563  0.52644831  1  -0.08594  0  -0.109667  -0.186899  0  3.986074  0
C  C120  1  0.46848656  0.60822697  0.13450710  1  -0.051229  0  -0.108746  -0.185382  0  3.985894  0
C  C121  1  0.86041162  0.52627514  0.39183593  1  -0.048203  0  -0.107715  -0.184793  0  3.984531  0
C  C122  1  0.33396388  0.86553446  0.47355106  1  -0.085919  0  -0.109741  -0.186967  0  3.986042  0
C  C123  1  0.57934306  0.42677888  0.82274864  1  -0.094842  0  -0.110546  -0.192211  0  3.983412  0
C  C124  1  0.15236790  0.39596738  0.57319910  1  -0.08032  0  -0.1101  -0.190936  0  3.984418  0
C  C125  1  0.75658107  0.17724686  0.60420765  1  -0.102874  0  -0.107999  -0.190166  0  3.982527  0
C  C126  1  0.42065484  0.57322182  0.17725190  1  -0.094824  0  -0.110543  -0.192161  0  3.983406  0
C  C127  1  0.84763184  0.60403271  0.42680235  1  -0.080305  0  -0.110082  -0.190891  0  3.984405  0
C  C128  1  0.24341837  0.82275263  0.39579194  1  -0.102885  0  -0.107966  -0.190098  0  3.982463  0
C  C129  1  0.73468656  0.47231169  0.86486172  1  0.447637  0  0.089632  0.183613  0  4.047991  0
C  C130  1  0.26225092  0.39250817  0.52767582  1  0.435181  0  0.088961  0.183443  0  4.052649  0
C  C131  1  0.86989375  0.13518211  0.60761066  1  0.502828  0  0.08885  0.182677  0  4.048915  0
C  C132  1  0.26531426  0.52768840  0.13513774  1  0.447434  0  0.089612  0.183551  0  4.04802  0
C  C133  1  0.73774882  0.60749193  0.47232511  1  0.43518  0  0.08892  0.183407  0  4.052721  0
C  C134  1  0.13010569  0.86481737  0.39238893  1  0.502833  0  0.088848  0.182662  0  4.048843  0
C  C135  1  0.17118026  0.48720202  0.16277060  1  -0.020913  0  -0.001163  -0.083677  0  3.921687  0
C  C136  1  0.68401948  0.67558279  0.51273828  1  -0.004753  0  0.000305  -0.082793  0  3.920871  0
C  C137  1  0.00819649  0.83711811  0.32431939  1  -0.054695  0  3.9e-05  -0.081213  0  3.917537  0
C  C138  1  0.82882164  0.51279807  0.83722843  1  -0.020919  0  -0.001253  -0.083845  0  3.921915  0
C  C139  1  0.31597780  0.32441670  0.48726217  1  -0.004793  0  0.000304  -0.082747  0  3.920732  0
C  C140  1  0.99180295  0.16288138  0.67568071  1  -0.05469  0  7e-06  -0.081237  0  3.917519  0
C  C141  1  0.51482505  0.33639243  0.98427394  1  -0.032545  0  -0.008945  0.081248  0  4.004267  0
C  C142  1  0.17860571  0.64784728  0.66359387  1  -0.017156  0  -0.007372  0.083302  0  4.00564  0
C  C143  1  0.53065910  0.01578134  0.35227986  1  -0.030852  0  -0.006627  0.083057  0  4.005162  0
C  C144  1  0.48517500  0.66360827  0.01572626  1  -0.032539  0  -0.008969  0.081151  0  4.004294  0
C  C145  1  0.82139403  0.35215281  0.33640706  1  -0.017191  0  -0.007346  0.083374  0  4.005653  0
C  C146  1  0.46934401  0.98422119  0.64772141  1  -0.030837  0  -0.006619  0.083023  0  4.005076  0
C  C147  1  0.39051513  0.36718120  0.99764528  1  -0.053462  0  -0.090459  -0.13128  0  3.946848  0
C  C148  1  0.02353932  0.63051781  0.63283921  1  -0.045465  0  -0.090505  -0.131908  0  3.948862  0
C  C149  1  0.39291583  0.00240919  0.36964313  1  -0.085859  0  -0.091299  -0.131053  0  3.949701  0
C  C150  1  0.60948491  0.63281951  0.00235595  1  -0.053459  0  -0.09047  -0.131264  0  3.946909  0
C  C151  1  0.97645934  0.36948229  0.36716163  1  -0.045507  0  -0.090515  -0.131924  0  3.948956  0
C  C152  1  0.60708684  0.99759030  0.63035568  1  -0.085958  0  -0.091246  -0.130947  0  3.949601  0
C  C153  1  0.25896030  0.31933627  0.99501178  1  -0.036712  0  -0.096607  -0.083106  0  4.017161  0
C  C154  1  0.93993696  0.67572921  0.68076353  1  -0.010441  0  -0.095746  -0.082142  0  4.017084  0
C  C155  1  0.26411011  0.00509547  0.32444335  1  -0.013309  0  -0.096596  -0.084157  0  4.019688  0
C  C156  1  0.74103975  0.68066444  0.00498894  1  -0.036714  0  -0.096555  -0.082999  0  4.017124  0
C  C157  1  0.06006231  0.32427210  0.31923741  1  -0.010437  0  -0.095732  -0.082133  0  4.017199  0
C  C158  1  0.73589209  0.99490523  0.67555546  1  -0.013377  0  -0.096618  -0.084148  0  4.019562  0
C  C159  1  0.24883785  0.23964784  0.97785603  1  -0.040364  0  -0.098241  -0.098564  0  4.038123  0
C  C160  1  0.00956787  0.73817165  0.76050166  1  0.020413  0  -0.099349  -0.099588  0  4.041708  0
C  C161  1  0.27136446  0.02242092  0.26203174  1  -0.034789  0  -0.099466  -0.098801  0  4.039213  0
C  C162  1  0.75116189  0.76035226  0.02214386  1  -0.040355  0  -0.098272  -0.098664  0  4.038071  0
C  C163  1  0.99043386  0.26183027  0.23949922  1  0.020447  0  -0.099352  -0.099581  0  4.041805  0
C  C164  1  0.72863697  0.97758039  0.73796729  1  -0.034795  0  -0.099444  -0.098781  0  4.039034  0
C  C165  1  0.37115930  0.20795186  0.96326285  1  -0.037141  0  -0.098977  -0.089664  0  4.055883  0
C  C166  1  0.16356697  0.75519707  0.79216769  1  -0.053722  0  -0.09911  -0.089551  0  4.059224  0
C  C167  1  0.40835352  0.03703402  0.24498250  1  -0.093393  0  -0.098606  -0.088804  0  4.059458  0
C  C168  1  0.62883829  0.79204823  0.03673583  1  -0.037155  0  -0.099015  -0.089683  0  4.055847  0
C  C169  1  0.83643415  0.24480363  0.20783260  1  -0.052117  0  -0.099097  -0.089567  0  4.059286  0
C  C170  1  0.59164868  0.96296668  0.75501683  1  -0.093565  0  -0.0986  -0.088796  0  4.059478  0
C  C171  1  0.50309853  0.25604158  0.96679974  1  -0.079412  0  -0.093343  -0.134792  0  3.984258  0
C  C172  1  0.24730711  0.71064051  0.74399983  1  -0.125598  0  -0.093508  -0.136639  0  3.986682  0
C  C173  1  0.53663771  0.03334106  0.28946258  1  -0.01548  0  -0.09401  -0.136334  0  3.985393  0
C  C174  1  0.49690013  0.74395851  0.03319954  1  -0.079395  0  -0.09327  -0.134687  0  3.984157  0
C  C175  1  0.75269402  0.28936019  0.25600097  1  -0.125574  0  -0.093534  -0.136635  0  3.986729  0
C  C176  1  0.46336419  0.96665904  0.71053645  1  -0.015286  0  -0.09402  -0.136379  0  3.985424  0
C  C177  1  0.24026799  0.48768635  0.23810618  1  -0.054205  0  0.017371  0.133327  0  4.009249  0
C  C178  1  0.75264531  0.75042976  0.51230096  1  -0.000888  0  0.014953  0.131834  0  4.009489  0
C  C179  1  0.00210348  0.76184873  0.24945851  1  -0.025995  0  0.014107  0.131335  0  4.009818  0
C  C180  1  0.75973313  0.51231435  0.76189410  1  -0.054207  0  0.017366  0.133396  0  4.009257  0
C  C181  1  0.24735167  0.24956912  0.48769711  1  -0.001079  0  0.014998  0.131861  0  4.009664  0
C  C182  1  0.99789703  0.23815076  0.75054116  1  -0.026009  0  0.014115  0.131336  0  4.009852  0
C  C183  1  0.20887591  0.53573980  0.31146715  1  -0.035276  0  -0.085929  -0.190136  0  3.952758  0
C  C184  1  0.67312388  0.77574064  0.46431690  1  0.009375  0  -0.087277  -0.190585  0  3.954901  0
C  C185  1  0.89750851  0.68847579  0.22417261  1  -0.043145  0  -0.086362  -0.188589  0  3.953249  0
C  C186  1  0.79111969  0.46425847  0.68853261  1  -0.03525  0  -0.085923  -0.190107  0  3.952779  0
C  C187  1  0.32687526  0.22425825  0.53568031  1  0.009379  0  -0.087347  -0.190688  0  3.955  0
C  C188  1  0.10249123  0.31152430  0.77582677  1  -0.043141  0  -0.086372  -0.188587  0  3.953248  0
C  C189  1  0.39374353  0.44004139  0.30953024  1  0.531272  0  0.046724  0.099195  0  3.963576  0
C  C190  1  0.95381997  0.86950296  0.55988422  1  0.485596  0  0.044981  0.099442  0  3.962835  0
C  C191  1  0.08436541  0.69041861  0.13039655  1  0.467885  0  0.045293  0.098995  0  3.965307  0
C  C192  1  0.60625590  0.55995810  0.69046935  1  0.531303  0  0.04675  0.099257  0  3.963574  0
C  C193  1  0.04617809  0.13049592  0.44011446  1  0.486312  0  0.04496  0.099424  0  3.962828  0
C  C194  1  0.91563433  0.30958149  0.86960334  1  0.467767  0  0.045301  0.099002  0  3.965178  0
C  C195  1  0.27227955  0.53298122  0.38026941  1  0.488089  0  0.04415  0.097523  0  3.961881  0
C  C196  1  0.73940246  0.84722951  0.46697278  1  0.450795  0  0.046863  0.098363  0  3.960975  0
C  C197  1  0.89230394  0.61965796  0.15265254  1  0.482559  0  0.045264  0.09633  0  3.962059  0
C  C198  1  0.72771912  0.46701888  0.61973039  1  0.488073  0  0.044104  0.097419  0  3.961909  0
C  C199  1  0.26059590  0.15276998  0.53302672  1  0.450781  0  0.046895  0.098384  0  3.960875  0
C  C200  1  0.10769550  0.38034152  0.84734653  1  0.482538  0  0.045268  0.096317  0  3.962065  0
C  C201  1  0.33576086  0.43903682  0.23781936  1  -0.05579  0  -0.087063  -0.183684  0  3.942238  0
C  C202  1  0.89692823  0.79874870  0.56083836  1  -0.058852  0  -0.084396  -0.1821  0  3.938182  0
C  C203  1  0.09804887  0.76212626  0.20112773  1  -0.026884  0  -0.083991  -0.181921  0  3.941412  0
C  C204  1  0.66423750  0.56096267  0.76218066  1  -0.055807  0  -0.087039  -0.183723  0  3.942207  0
C  C205  1  0.10306923  0.20124897  0.43916024  1  -0.059194  0  -0.084345  -0.182042  0  3.938248  0
C  C206  1  0.90195164  0.23787323  0.79887142  1  -0.026801  0  -0.083993  -0.181892  0  3.941367  0
N  N207  1  0.92862875  0.44250226  0.06140221  1  -1.202582  0  -0.365259  -0.358859  0  3.46629  0
N  N208  1  0.48612220  0.61886705  0.55738111  1  -1.193552  0  -0.36497  -0.359595  0  3.46817  0
N  N209  1  0.86698731  0.93843780  0.38111397  1  -1.208902  0  -0.362235  -0.354363  0  3.462907  0
N  N210  1  0.07137099  0.55749784  0.93859768  1  -1.202579  0  -0.365245  -0.35883  0  3.466251  0
N  N211  1  0.51387754  0.38113305  0.44262034  1  -1.19355  0  -0.364937  -0.359528  0  3.468109  0
N  N212  1  0.13301213  0.06156169  0.61888614  1  -1.208861  0  -0.362229  -0.354364  0  3.462926  0
N  N213  1  0.77742415  0.46561438  0.93248427  1  -1.211903  0  -0.360833  -0.355161  0  3.438723  0
N  N214  1  0.31179821  0.46680826  0.53436482  1  -1.190176  0  -0.359213  -0.35464  0  3.440628  0
N  N215  1  0.84506476  0.06756447  0.53327541  1  -1.22186  0  -0.360277  -0.35665  0  3.440024  0
N  N216  1  0.22257468  0.53438389  0.06751420  1  -1.211939  0  -0.360895  -0.355177  0  3.438752  0
N  N217  1  0.68820153  0.53319184  0.46563611  1  -1.190196  0  -0.359175  -0.354615  0  3.440519  0
N  N218  1  0.15493391  0.93243562  0.46672491  1  -1.221877  0  -0.360311  -0.356704  0  3.440019  0
N  N219  1  0.36317984  0.48598532  0.37963679  1  -1.209552  0  -0.313037  -0.227166  0  3.482618  0
N  N220  1  0.87728717  0.89364852  0.51396239  1  -1.232743  0  -0.313319  -0.22754  0  3.484438  0
N  N221  1  0.98376988  0.62030724  0.10624647  1  -1.216686  0  -0.312117  -0.226373  0  3.482313  0
N  N222  1  0.63681883  0.51401477  0.62036302  1  -1.209585  0  -0.313028  -0.227151  0  3.482689  0
N  N223  1  0.12271120  0.10635097  0.48603763  1  -1.233253  0  -0.313364  -0.227605  0  3.484458  0
N  N224  1  0.01623017  0.37969346  0.89375373  1  -1.216679  0  -0.312116  -0.226379  0  3.482305  0
