# generated using pymatgen
data_Nd2Cu3H30C24(NO4)6
_symmetry_space_group_name_H-M   'P 1'
_cell_length_a   13.41566030
_cell_length_b   13.41566764
_cell_length_c   14.72949495
_cell_angle_alpha   90.00008391
_cell_angle_beta   90.00004039
_cell_angle_gamma   120.00001126
_symmetry_Int_Tables_number   1
_chemical_formula_structural   Nd2Cu3H30C24(NO4)6
_chemical_formula_sum   'Nd4 Cu6 H60 C48 N12 O48'
_cell_volume   2295.84614970
_cell_formula_units_Z   2
loop_
 _symmetry_equiv_pos_site_id
 _symmetry_equiv_pos_as_xyz
  1  'x, y, z'
loop_
 _atom_site_type_symbol
 _atom_site_label
 _atom_site_symmetry_multiplicity
 _atom_site_fract_x
 _atom_site_fract_y
 _atom_site_fract_z
 _atom_site_occupancy
 _atom_site_pbe_bader_charge
 _atom_site_pbe_bader_spin_density
 _atom_site_pbe_cm5_charge
 _atom_site_pbe_ddec_charge
 _atom_site_pbe_ddec_spin_density
 _atom_site_pbe_ddec_sum_bond_order
 _atom_site_pbe_magmom
Nd  Nd0  1  0.33333275  0.66666704  0.66834866  1  2.254589  0.002634  1.488365  2.099168  0.004141  2.176951  0.002
Nd  Nd1  1  0.66666869  0.33333186  0.83164878  1  2.254344  0.002635  1.488345  2.099101  0.004141  2.176911  0.002
Nd  Nd2  1  0.66666687  0.33333248  0.33165132  1  2.254593  0.002634  1.488317  2.099149  0.004141  2.176944  0.002
Nd  Nd3  1  0.33333211  0.66666799  0.16835120  1  2.254345  0.002635  1.488322  2.099066  0.004141  2.176957  0.002
Cu  Cu4  1  0.49999981  0.49999976  0.49999999  1  1.053593  0.581152  0.746587  0.769423  0.736674  2.219084  0.58
Cu  Cu5  1  0.00000017  0.49999994  0.49999983  1  1.053117  0.581133  0.746589  0.769379  0.736674  2.219102  0.58
Cu  Cu6  1  0.49999945  0.99999904  0.50000032  1  1.052757  0.58113  0.746566  0.769424  0.736675  2.219146  0.58
Cu  Cu7  1  0.00000039  0.50000002  0.00000033  1  1.052745  0.581122  0.746588  0.769365  0.736664  2.219075  0.58
Cu  Cu8  1  0.49999959  0.49999968  0.99999948  1  1.053458  0.581143  0.746577  0.769347  0.736664  2.219106  0.58
Cu  Cu9  1  0.49999924  0.99999955  0.00000015  1  1.053  0.581125  0.746543  0.769365  0.736664  2.219077  0.58
H  H10  1  0.67746333  0.63838780  0.41835104  1  0.496636  -0.000208  0.2914  0.254047  4.7e-05  1.010859  0.0
H  H11  1  0.69369539  0.83073587  0.47317654  1  0.064684  0.005861  0.109858  0.105351  0.002992  0.976901  0.003
H  H12  1  0.71285716  0.74062444  0.55175080  1  0.072803  0.000244  0.120431  0.122162  2.1e-05  0.97129  0.0
H  H13  1  0.60578241  0.68557014  0.29792397  1  0.075683  0.001966  0.121933  0.125769  0.000976  0.965039  0.001
H  H14  1  0.53866945  0.73936294  0.36861548  1  0.13648  0.000352  0.12506  0.133394  0.000168  0.994678  0.0
H  H15  1  0.96092155  0.32253493  0.41835160  1  0.506506  -0.000185  0.291381  0.254017  4.7e-05  1.010981  0.0
H  H16  1  0.13704048  0.30630358  0.47317669  1  0.056697  0.005891  0.109862  0.105376  0.002992  0.976851  0.003
H  H17  1  0.02776550  0.28714075  0.55175028  1  0.070655  0.000245  0.120428  0.122142  2.1e-05  0.971273  0.0
H  H18  1  0.07978637  0.39421688  0.29792429  1  0.086059  0.001949  0.121939  0.125773  0.000976  0.965064  0.001
H  H19  1  0.20069267  0.46133132  0.36861654  1  0.139912  0.000353  0.125063  0.133407  0.000168  0.994697  0.0
H  H20  1  0.36161287  0.03907968  0.41835257  1  0.510791  -0.000219  0.291396  0.254078  4.7e-05  1.010922  0.0
H  H21  1  0.16926348  0.86295918  0.47317707  1  0.071514  0.005856  0.10985  0.105393  0.002992  0.976864  0.003
H  H22  1  0.25937607  0.97223462  0.55175149  1  0.075661  0.000245  0.120441  0.122161  2.1e-05  0.971231  0.0
H  H23  1  0.31442935  0.92021457  0.29792335  1  0.094924  0.00193  0.121933  0.125783  0.000976  0.965079  0.001
H  H24  1  0.26063772  0.79930908  0.36861543  1  0.140936  0.000343  0.125057  0.133374  0.000168  0.994762  0.0
H  H25  1  0.03907868  0.36161272  0.08164800  1  0.510807  -0.000219  0.291369  0.254049  4.7e-05  1.010957  0.0
H  H26  1  0.86296064  0.16926470  0.02682276  1  0.07153  0.005856  0.109872  0.105385  0.002992  0.976836  0.003
H  H27  1  0.97223519  0.25937574  0.94824821  1  0.074885  0.000245  0.12045  0.122166  2.1e-05  0.971248  0.0
H  H28  1  0.92021537  0.31442898  0.20207600  1  0.095311  0.001929  0.121933  0.125759  0.000976  0.965039  0.001
H  H29  1  0.79930891  0.26063644  0.13138443  1  0.140923  0.000343  0.125087  0.133412  0.000168  0.994683  0.0
H  H30  1  0.63838861  0.67746466  0.08164772  1  0.496529  -0.000209  0.291383  0.254037  4.7e-05  1.010873  0.0
H  H31  1  0.83073743  0.69369739  0.02682310  1  0.064666  0.005862  0.109878  0.105402  0.002992  0.976894  0.003
H  H32  1  0.74062561  0.71285994  0.94824843  1  0.072088  0.000244  0.120443  0.122145  2.1e-05  0.971255  0.0
H  H33  1  0.68557204  0.60578484  0.20207544  1  0.078828  0.001951  0.121945  0.125756  0.000976  0.965012  0.001
H  H34  1  0.73936474  0.53867178  0.13138392  1  0.141515  0.000351  0.125081  0.133376  0.000168  0.994707  0.0
H  H35  1  0.32253541  0.96092256  0.08164781  1  0.506552  -0.000185  0.291388  0.254047  4.7e-05  1.010969  0.0
H  H36  1  0.30630433  0.13704034  0.02682324  1  0.062439  0.005871  0.109865  0.105357  0.002992  0.97687  0.003
H  H37  1  0.28714121  0.02776626  0.94824919  1  0.070706  0.000245  0.120441  0.12215  2.1e-05  0.971258  0.0
H  H38  1  0.39421577  0.07978610  0.20207636  1  0.083661  0.001953  0.121941  0.125755  0.000976  0.965049  0.001
H  H39  1  0.46132888  0.20069184  0.13138564  1  0.13955  0.000353  0.125076  0.133406  0.000168  0.994675  0.0
H  H40  1  0.32253629  0.36161173  0.58164894  1  0.496636  -0.000208  0.291388  0.254048  4.7e-05  1.010858  0.0
H  H41  1  0.30630422  0.16926366  0.52682343  1  0.064682  0.005862  0.10986  0.105347  0.002992  0.976891  0.003
H  H42  1  0.28714202  0.25937552  0.44824917  1  0.072794  0.000244  0.12044  0.122149  2.1e-05  0.97127  0.0
H  H43  1  0.39421720  0.31442939  0.70207600  1  0.075684  0.001966  0.12193  0.125754  0.000976  0.965063  0.001
H  H44  1  0.46133016  0.26063658  0.63138450  1  0.136479  0.000352  0.125088  0.133429  0.000168  0.994704  0.0
H  H45  1  0.03907838  0.67746577  0.58164838  1  0.506571  -0.000185  0.291389  0.254063  4.7e-05  1.010939  0.0
H  H46  1  0.86295914  0.69369595  0.52682396  1  0.056698  0.005891  0.109848  0.105369  0.002992  0.976859  0.003
H  H47  1  0.97223411  0.71285878  0.44824902  1  0.070652  0.000245  0.120429  0.122142  2.1e-05  0.971263  0.0
H  H48  1  0.92021356  0.60578383  0.70207569  1  0.086054  0.001949  0.121938  0.125759  0.000976  0.965058  0.001
H  H49  1  0.79930726  0.53866938  0.63138411  1  0.139907  0.000353  0.125075  0.133405  0.000168  0.994687  0.0
H  H50  1  0.63838706  0.96092103  0.58164740  1  0.510799  -0.000219  0.29141  0.254098  4.7e-05  1.010914  0.0
H  H51  1  0.83073614  0.13704034  0.52682290  1  0.071517  0.005856  0.109861  0.105392  0.002992  0.976856  0.003
H  H52  1  0.74062386  0.02776608  0.44824848  1  0.075666  0.000245  0.120451  0.12218  2.1e-05  0.971214  0.0
H  H53  1  0.68557144  0.07978528  0.70207662  1  0.094972  0.00193  0.121945  0.125794  0.000976  0.965061  0.001
H  H54  1  0.73936264  0.20069119  0.63138455  1  0.14093  0.000343  0.12508  0.133409  0.000168  0.994723  0.0
H  H55  1  0.96092094  0.63838681  0.91835198  1  0.510804  -0.000219  0.291365  0.254038  4.7e-05  1.01097  0.0
H  H56  1  0.13703972  0.83073558  0.97317721  1  0.071524  0.005856  0.109869  0.105395  0.002992  0.976845  0.003
H  H57  1  0.02776517  0.74062454  0.05175109  1  0.074914  0.000245  0.120442  0.122152  2.1e-05  0.971216  0.0
H  H58  1  0.07978499  0.68557130  0.79792397  1  0.095311  0.001929  0.121934  0.125755  0.000976  0.965038  0.001
H  H59  1  0.20069071  0.73936309  0.86861554  1  0.140922  0.000343  0.125078  0.133386  0.000168  0.994726  0.0
H  H60  1  0.36161175  0.32253562  0.91835293  1  0.496529  -0.000209  0.291392  0.254045  4.7e-05  1.010859  0.0
H  H61  1  0.16926293  0.30630288  0.97317687  1  0.064672  0.005862  0.109873  0.105396  0.002992  0.976913  0.003
H  H62  1  0.25937475  0.28714033  0.05175154  1  0.072095  0.000244  0.120447  0.122156  2.1e-05  0.971267  0.0
H  H63  1  0.31442832  0.39421543  0.79792453  1  0.078801  0.001951  0.121947  0.125753  0.000976  0.965007  0.001
H  H64  1  0.26063562  0.46132849  0.86861605  1  0.14151  0.000351  0.125083  0.133366  0.000168  0.994722  0.0
H  H65  1  0.67746495  0.03907771  0.91835217  1  0.506553  -0.000185  0.291384  0.254078  4.7e-05  1.01092  0.0
H  H66  1  0.69369529  0.86295919  0.97317673  1  0.062437  0.005871  0.109862  0.105375  0.002992  0.976852  0.003
H  H67  1  0.71285872  0.97223444  0.05175079  1  0.0707  0.000245  0.120436  0.122155  2.1e-05  0.971257  0.0
H  H68  1  0.60578502  0.92021375  0.79792294  1  0.083713  0.001953  0.121921  0.125727  0.000976  0.965067  0.001
H  H69  1  0.53867148  0.79930843  0.86861433  1  0.139546  0.000353  0.125074  0.133399  0.000168  0.994681  0.0
C  C70  1  0.55270420  0.73498456  0.56549324  1  1.577108  0.002278  0.206169  0.621444  0.001275  4.175988  0.002
C  C71  1  0.65081836  0.74537334  0.50588160  1  0.28276  0.000421  -0.067168  -0.178155  0.000232  3.896749  -0.002
C  C72  1  0.55268678  0.66593896  0.35936868  1  0.226221  0.001418  -0.064421  -0.202445  0.00088  3.863584  -0.001
C  C73  1  0.43587669  0.56002722  0.34088321  1  1.58243  0.001093  0.233442  0.6605  0.000899  4.106582  0.001
C  C74  1  0.18227988  0.44729444  0.56549361  1  1.576336  0.002276  0.206158  0.621376  0.001275  4.176168  0.002
C  C75  1  0.09455400  0.34918067  0.50588115  1  0.295395  0.000392  -0.067141  -0.178148  0.000232  3.896747  -0.002
C  C76  1  0.11325048  0.44731293  0.35936907  1  0.194906  0.001413  -0.064458  -0.202541  0.00088  3.863702  -0.001
C  C77  1  0.12414616  0.56412161  0.34088176  1  1.597498  0.001113  0.233488  0.660534  0.000899  4.106367  0.001
C  C78  1  0.26501705  0.81772149  0.56549253  1  1.586335  0.002278  0.206201  0.621528  0.001275  4.176004  0.002
C  C79  1  0.25462697  0.90544636  0.50588158  1  0.275994  0.000411  -0.067144  -0.178207  0.000232  3.896756  -0.002
C  C80  1  0.33406182  0.88675068  0.35936808  1  0.203136  0.001438  -0.064441  -0.202519  0.00088  3.863791  -0.001
C  C81  1  0.43997456  0.87585377  0.34088139  1  1.588716  0.001137  0.233465  0.660518  0.000899  4.106504  0.001
C  C82  1  0.81772073  0.26501631  0.93450702  1  1.587046  0.002278  0.206185  0.621492  0.001276  4.175981  0.002
C  C83  1  0.90544656  0.25462716  0.99411805  1  0.274462  0.000411  -0.06714  -0.178159  0.000232  3.896704  -0.002
C  C84  1  0.88675013  0.33406096  0.14063126  1  0.20321  0.001439  -0.064426  -0.202423  0.00088  3.863675  -0.001
C  C85  1  0.87585322  0.43997366  0.15911126  1  1.590415  0.001137  0.233554  0.660571  0.000899  4.10645  0.001
C  C86  1  0.73498704  0.55270577  0.93450651  1  1.577657  0.002278  0.206277  0.621605  0.001276  4.175906  0.002
C  C87  1  0.74537550  0.65082044  0.99411758  1  0.282999  0.000422  -0.067165  -0.178176  0.000232  3.896792  -0.002
C  C88  1  0.66594041  0.55268792  0.14062998  1  0.218603  0.00143  -0.064433  -0.20234  0.00088  3.863579  -0.001
C  C89  1  0.56002696  0.43587964  0.15910980  1  1.58306  0.001093  0.233602  0.660636  0.000899  4.106368  0.001
C  C90  1  0.44729537  0.18228012  0.93450753  1  1.576893  0.002275  0.206197  0.621488  0.001276  4.176018  0.002
C  C91  1  0.34918169  0.09455442  0.99411844  1  0.288739  0.000413  -0.067173  -0.178131  0.000232  3.896724  -0.002
C  C92  1  0.44731246  0.11325080  0.14063165  1  0.198103  0.001409  -0.064411  -0.202376  0.00088  3.863575  -0.001
C  C93  1  0.56412095  0.12414539  0.15911163  1  1.598263  0.001114  0.233534  0.660558  0.0009  4.106341  0.001
C  C94  1  0.44729542  0.26501497  0.43450673  1  1.577102  0.002278  0.206153  0.621426  0.001275  4.176026  0.002
C  C95  1  0.34918200  0.25462694  0.49411838  1  0.282768  0.000421  -0.067158  -0.178107  0.000232  3.896742  -0.002
C  C96  1  0.44731358  0.33406131  0.64063129  1  0.226229  0.001418  -0.064427  -0.20246  0.00088  3.86364  -0.001
C  C97  1  0.56412367  0.43997305  0.65911676  1  1.582434  0.001093  0.233441  0.660524  0.000899  4.106575  0.001
C  C98  1  0.81772017  0.55270465  0.43450637  1  1.576319  0.002276  0.206166  0.621458  0.001275  4.176055  0.002
C  C99  1  0.90544561  0.65081886  0.49411814  1  0.295407  0.000392  -0.067106  -0.178103  0.000232  3.896701  -0.002
C  C100  1  0.88674945  0.55268777  0.64063090  1  0.194895  0.001413  -0.064439  -0.202431  0.00088  3.863676  -0.001
C  C101  1  0.87585451  0.43587984  0.65911754  1  1.597484  0.001113  0.233446  0.660447  0.000899  4.106345  0.001
C  C102  1  0.73498331  0.18227878  0.43450745  1  1.586375  0.002278  0.20619  0.621493  0.001275  4.176061  0.002
C  C103  1  0.74537296  0.09455434  0.49411840  1  0.275993  0.000411  -0.067157  -0.17821  0.000232  3.896764  -0.002
C  C104  1  0.66593854  0.11324960  0.64063190  1  0.203086  0.001438  -0.064475  -0.202534  0.00088  3.863753  -0.001
C  C105  1  0.56002581  0.12414650  0.65911859  1  1.588716  0.001137  0.233469  0.660455  0.000899  4.106519  0.001
C  C106  1  0.18227963  0.73498396  0.06549227  1  1.587058  0.002278  0.206204  0.621493  0.001276  4.175968  0.002
C  C107  1  0.09455380  0.74537312  0.00588192  1  0.274435  0.000411  -0.067143  -0.178168  0.000232  3.896703  -0.002
C  C108  1  0.11325023  0.66593931  0.85936871  1  0.203196  0.001439  -0.064416  -0.202386  0.00088  3.863675  -0.001
C  C109  1  0.12414640  0.56002587  0.84088872  1  1.590423  0.001137  0.23354  0.660585  0.0009  4.106417  0.001
C  C110  1  0.26501332  0.44729450  0.06549346  1  1.577652  0.002278  0.206264  0.621542  0.001276  4.176009  0.002
C  C111  1  0.25462486  0.34917984  0.00588239  1  0.282998  0.000422  -0.067174  -0.178182  0.000232  3.896866  -0.002
C  C112  1  0.33405995  0.44731236  0.85936999  1  0.218643  0.00143  -0.064421  -0.202295  0.00088  3.863584  -0.001
C  C113  1  0.43997297  0.56412106  0.84088950  1  1.583064  0.001093  0.233496  0.660506  0.000899  4.106478  0.001
C  C114  1  0.55270425  0.81771941  0.06549245  1  1.576902  0.002275  0.206181  0.621452  0.001276  4.176068  0.002
C  C115  1  0.65081867  0.90544586  0.00588153  1  0.288745  0.000413  -0.067127  -0.178112  0.000232  3.896697  -0.002
C  C116  1  0.55268834  0.88674905  0.85936764  1  0.198064  0.001409  -0.064402  -0.202367  0.000881  3.86359  -0.001
C  C117  1  0.43587910  0.87585371  0.84088835  1  1.598378  0.001115  0.233492  0.660571  0.000899  4.106199  0.001
N  N118  1  0.61113908  0.65185145  0.43911616  1  -1.097671  0.095763  -0.495731  -0.279985  0.061319  3.55272  0.079
N  N119  1  0.04071077  0.38885966  0.43911648  1  -1.089933  0.095753  -0.495725  -0.279913  0.061319  3.552836  0.079
N  N120  1  0.34814841  0.95928986  0.43911628  1  -1.110053  0.095816  -0.49574  -0.280018  0.06132  3.552848  0.079
N  N121  1  0.95928874  0.34814781  0.06088315  1  -1.109847  0.095819  -0.495738  -0.28002  0.061321  3.552848  0.079
N  N122  1  0.65185267  0.61113999  0.06088254  1  -1.097408  0.095769  -0.495756  -0.280045  0.061321  3.552823  0.079
N  N123  1  0.38885972  0.04071167  0.06088411  1  -1.090286  0.095759  -0.495722  -0.280007  0.061321  3.552816  0.079
N  N124  1  0.38886053  0.34814808  0.56088381  1  -1.097628  0.095764  -0.495734  -0.280001  0.061319  3.552738  0.079
N  N125  1  0.95928842  0.61114030  0.56088349  1  -1.089995  0.095755  -0.495751  -0.280045  0.06132  3.552897  0.079
N  N126  1  0.65185195  0.04071041  0.56088369  1  -1.110057  0.095816  -0.495749  -0.280042  0.06132  3.552863  0.079
N  N127  1  0.04071088  0.65185172  0.93911683  1  -1.109826  0.09582  -0.495727  -0.279994  0.061321  3.552817  0.079
N  N128  1  0.34814694  0.38885954  0.93911743  1  -1.097376  0.09577  -0.495765  -0.280054  0.061321  3.552885  0.079
N  N129  1  0.61113989  0.95928785  0.93911586  1  -1.090268  0.095759  -0.495727  -0.280071  0.061322  3.552849  0.079
O  O130  1  0.45504458  0.64296435  0.55743381  1  -1.180031  -0.001027  -0.396841  -0.664236  -0.001496  2.3332  0.0
O  O131  1  0.57116921  0.81443952  0.62080816  1  -1.195411  0.00119  -0.327626  -0.599242  0.00049  2.164336  0.001
O  O132  1  0.39808338  0.47493446  0.39558971  1  -1.1062  0.085716  -0.316699  -0.516579  0.054216  2.283829  0.078
O  O133  1  0.37984108  0.56058420  0.27223862  1  -1.215264  0.013479  -0.409226  -0.666447  0.008266  2.297403  0.011
O  O134  1  0.18791978  0.54495463  0.55743434  1  -1.182245  -0.00102  -0.396834  -0.664209  -0.001496  2.33323  0.0
O  O135  1  0.24326981  0.42882961  0.62080780  1  -1.195095  0.001191  -0.327636  -0.599216  0.00049  2.16439  0.001
O  O136  1  0.07685277  0.60191723  0.39559104  1  -1.114117  0.08571  -0.316731  -0.516543  0.054215  2.283729  0.078
O  O137  1  0.18073548  0.62015573  0.27223520  1  -1.21977  0.013477  -0.409211  -0.666453  0.008266  2.29727  0.011
O  O138  1  0.35703630  0.81208191  0.55743389  1  -1.18462  -0.001018  -0.396867  -0.664251  -0.001496  2.333204  0.0
O  O139  1  0.18556079  0.75673009  0.62080732  1  -1.201237  0.001195  -0.327644  -0.599286  0.00049  2.164317  0.001
O  O140  1  0.52506475  0.92314929  0.39559005  1  -1.11378  0.085674  -0.316691  -0.516534  0.054215  2.283809  0.078
O  O141  1  0.43941754  0.81926104  0.27223677  1  -1.215974  0.013472  -0.409213  -0.66644  0.008266  2.297333  0.011
O  O142  1  0.81207964  0.35703402  0.94256574  1  -1.184544  -0.001018  -0.396846  -0.66422  -0.001497  2.333224  0.0
O  O143  1  0.75672855  0.18555760  0.87919209  1  -1.200305  0.001195  -0.327654  -0.599289  0.00049  2.164258  0.001
O  O144  1  0.92315054  0.52506474  0.10441292  1  -1.113882  0.085666  -0.316661  -0.516473  0.05421  2.283968  0.078
O  O145  1  0.81925421  0.43941125  0.22776329  1  -1.217704  0.01348  -0.409385  -0.66663  0.008271  2.2971  0.011
O  O146  1  0.64296875  0.45504727  0.94256304  1  -1.180012  -0.001027  -0.39682  -0.664225  -0.001497  2.333266  0.0
O  O147  1  0.81444640  0.57117514  0.87919169  1  -1.195526  0.00119  -0.327725  -0.599376  0.00049  2.164225  0.001
O  O148  1  0.47493519  0.39808651  0.10441269  1  -1.106193  0.085705  -0.316683  -0.51648  0.054209  2.283961  0.078
O  O149  1  0.56058948  0.37984186  0.22776249  1  -1.215755  0.013487  -0.4094  -0.666711  0.008271  2.297069  0.011
O  O150  1  0.54495403  0.18792020  0.94256487  1  -1.18218  -0.00102  -0.396838  -0.664241  -0.001497  2.333252  0.0
O  O151  1  0.42882864  0.24327160  0.87919406  1  -1.194834  0.001191  -0.327624  -0.599257  0.00049  2.164281  0.001
O  O152  1  0.60191605  0.07685234  0.10441116  1  -1.113805  0.085699  -0.316663  -0.51648  0.054208  2.283965  0.078
O  O153  1  0.62015639  0.18074115  0.22776713  1  -1.220838  0.013483  -0.409371  -0.666643  0.00827  2.296979  0.011
O  O154  1  0.54495503  0.35703518  0.44256617  1  -1.180018  -0.001027  -0.396822  -0.66422  -0.001496  2.333196  0.0
O  O155  1  0.42883041  0.18556000  0.37919181  1  -1.195422  0.00119  -0.327634  -0.59924  0.00049  2.164352  0.001
O  O156  1  0.60191623  0.52506506  0.60440959  1  -1.106198  0.085716  -0.316736  -0.516633  0.054216  2.283868  0.078
O  O157  1  0.62015959  0.43941725  0.72776204  1  -1.215269  0.013479  -0.409201  -0.666431  0.008266  2.297373  0.011
O  O158  1  0.81208058  0.45504565  0.44256564  1  -1.18226  -0.00102  -0.396853  -0.664244  -0.001496  2.33322  0.0
O  O159  1  0.75672937  0.57117035  0.37919285  1  -1.195075  0.001191  -0.32763  -0.59926  0.00049  2.16434  0.001
O  O160  1  0.92314716  0.39808347  0.60440893  1  -1.114105  0.085708  -0.316712  -0.516515  0.054214  2.283752  0.078
O  O161  1  0.81926445  0.37984497  0.72776478  1  -1.219745  0.013477  -0.409226  -0.666448  0.008266  2.297178  0.011
O  O162  1  0.64296406  0.18791836  0.44256608  1  -1.184657  -0.001018  -0.396861  -0.664237  -0.001496  2.333223  0.0
O  O163  1  0.81443957  0.24327018  0.37919265  1  -1.201247  0.001195  -0.327645  -0.599275  0.00049  2.164317  0.001
O  O164  1  0.47493486  0.07685023  0.60440993  1  -1.113802  0.085674  -0.316716  -0.516546  0.054215  2.283849  0.078
O  O165  1  0.56058326  0.18073881  0.72776320  1  -1.215968  0.013472  -0.409226  -0.666411  0.008266  2.297306  0.011
O  O166  1  0.18791954  0.64296594  0.05743423  1  -1.184558  -0.001018  -0.396833  -0.664194  -0.001497  2.333239  0.0
O  O167  1  0.24327181  0.81444267  0.12080789  1  -1.200301  0.001195  -0.327679  -0.599312  0.00049  2.164232  0.001
O  O168  1  0.07684982  0.47493553  0.89558706  1  -1.113891  0.085663  -0.316633  -0.516466  0.054208  2.28397  0.078
O  O169  1  0.18074615  0.56058902  0.77223669  1  -1.217707  0.01348  -0.409401  -0.666661  0.00827  2.29708  0.011
O  O170  1  0.35703161  0.54495300  0.05743694  1  -1.180024  -0.001027  -0.39682  -0.664194  -0.001497  2.333296  0.0
O  O171  1  0.18555396  0.42882514  0.12080829  1  -1.195516  0.00119  -0.327717  -0.599352  0.00049  2.164278  0.001
O  O172  1  0.52506517  0.60191376  0.89558729  1  -1.106194  0.085708  -0.316672  -0.516512  0.054211  2.284037  0.078
O  O173  1  0.43941014  0.62015767  0.77223749  1  -1.215773  0.013486  -0.409334  -0.666562  0.00827  2.297068  0.011
O  O174  1  0.45504559  0.81207933  0.05743511  1  -1.182188  -0.00102  -0.396849  -0.664244  -0.001497  2.333297  0.0
O  O175  1  0.57117172  0.75672868  0.12080592  1  -1.19484  0.001191  -0.327621  -0.599232  0.00049  2.164265  0.001
O  O176  1  0.39808325  0.92314601  0.89558950  1  -1.113935  0.085699  -0.316658  -0.516494  0.054209  2.283943  0.078
O  O177  1  0.37984322  0.81925838  0.77223285  1  -1.220844  0.013483  -0.409337  -0.666616  0.008271  2.296909  0.011
