# generated using pymatgen
data_Zr6H24C52S10N4O37
_symmetry_space_group_name_H-M   'P 1'
_cell_length_a   16.44297280
_cell_length_b   16.47073080
_cell_length_c   16.51659953
_cell_angle_alpha   62.15287761
_cell_angle_beta   59.98313515
_cell_angle_gamma   60.25932073
_symmetry_Int_Tables_number   1
_chemical_formula_structural   Zr6H24C52S10N4O37
_chemical_formula_sum   'Zr6 H24 C52 S10 N4 O37'
_cell_volume   3217.25428314
_cell_formula_units_Z   1
loop_
 _symmetry_equiv_pos_site_id
 _symmetry_equiv_pos_as_xyz
  1  'x, y, z'
loop_
 _atom_site_type_symbol
 _atom_site_label
 _atom_site_symmetry_multiplicity
 _atom_site_fract_x
 _atom_site_fract_y
 _atom_site_fract_z
 _atom_site_occupancy
 _atom_site_pbe_bader_charge
 _atom_site_pbe_bader_spin_density
 _atom_site_pbe_cm5_charge
 _atom_site_pbe_ddec_charge
 _atom_site_pbe_ddec_spin_density
 _atom_site_pbe_ddec_sum_bond_order
 _atom_site_pbe_magmom
Zr  Zr0  1  0.89000469  0.90188887  0.59967174  1  2.634245  0  1.625313  2.372561  0  2.780399  0
Zr  Zr1  1  0.10977685  0.10537069  0.39646492  1  2.640389  0  1.630987  2.374564  0  2.771244  0
Zr  Zr2  1  0.10428045  0.89734028  0.60467704  1  2.635217  0  1.625434  2.369538  0  2.753344  0
Zr  Zr3  1  0.89553620  0.10936246  0.39298839  1  2.629798  0  1.617924  2.368707  0  2.762639  0
Zr  Zr4  1  0.10963688  0.89378884  0.38923395  1  2.638557  0  1.617108  2.376827  0  2.725808  0
Zr  Zr5  1  0.89051333  0.11245139  0.60844537  1  2.635373  0  1.617384  2.376626  0  2.724863  0
H  H6  1  0.08062293  0.75430923  0.57731622  1  0.608574  0  0.331888  0.424783  0  0.855063  0
H  H7  1  0.08922289  0.08233752  0.24947612  1  0.601093  0  0.331765  0.424698  0  0.854478  0
H  H8  1  0.08343452  0.08531168  0.58765169  1  0.618104  0  0.332149  0.425729  0  0.854849  0
H  H9  1  0.74424914  0.09246856  0.58075286  1  0.624862  0  0.330061  0.424308  0  0.855561  0
H  H10  1  0.12489318  0.61176243  0.36080191  1  0.119521  0  0.121407  0.146107  0  0.969883  0
H  H11  1  0.61009817  0.12706284  0.90211060  1  0.108475  0  0.119856  0.144288  0  0.972806  0
H  H12  1  0.86624607  0.12480252  0.11942974  1  0.128491  0  0.117912  0.142409  0  0.977694  0
H  H13  1  0.62143205  0.39548807  0.36497016  1  0.144744  0  0.117634  0.142378  0  0.976085  0
H  H14  1  0.86710594  0.64776081  0.82849067  1  0.078813  0  0.10034  0.113555  0  1.023726  0
H  H15  1  0.15445092  0.33600846  0.14358426  1  0.105806  0  0.103559  0.118572  0  1.018724  0
H  H16  1  0.62142761  0.87227594  0.60966043  1  0.119347  0  0.118923  0.143142  0  0.976737  0
H  H17  1  0.80802222  0.45476005  0.67432291  1  0.606235  0  0.336072  0.358864  0  0.879232  0
H  H18  1  0.44893438  0.81368677  0.06007004  1  0.600931  0  0.33828  0.362274  0  0.875983  0
H  H19  1  0.17124145  0.81473338  0.93522564  1  0.592873  0  0.338636  0.362039  0  0.873992  0
H  H20  1  0.43563041  0.58378414  0.67122220  1  0.586602  0  0.335869  0.359323  0  0.880004  0
H  H21  1  0.43747118  0.17260231  0.31691878  1  0.606443  0  0.337706  0.360253  0  0.875164  0
H  H22  1  0.23467610  0.49523958  0.92133853  1  0.406177  0  0.295733  0.281177  0  0.957453  0
H  H23  1  0.24714835  0.42834711  0.02960003  1  0.406945  0  0.295516  0.284721  0  0.951806  0
H  H24  1  0.10184540  0.72058222  0.83820243  1  0.506886  0  0.304439  0.318468  0  0.981448  0
H  H25  1  0.13700418  0.62928971  0.93938251  1  0.476086  0  0.297711  0.292732  0  1.003547  0
H  H26  1  0.85114736  0.42576085  0.98341686  1  0.399077  0  0.296044  0.28056  0  0.956773  0
H  H27  1  0.79486861  0.53538689  0.92050741  1  0.405091  0  0.292759  0.280111  0  0.958359  0
H  H28  1  0.84386614  0.33741348  0.21066918  1  0.498338  0  0.300525  0.311728  0  0.992589  0
H  H29  1  0.79680347  0.43855438  0.11993659  1  0.469288  0  0.297455  0.294078  0  1.002468  0
C  C30  1  0.99621184  0.73864016  0.48501169  1  1.575264  0  0.224507  0.639496  0  4.162571  0
C  C31  1  0.28028730  0.98997815  0.23360324  1  1.560038  0  0.221741  0.658846  0  4.149988  0
C  C32  1  0.99454112  0.27548366  0.50404828  1  1.596918  0  0.221999  0.65802  0  4.149475  0
C  C33  1  0.72616697  0.00804668  0.77083834  1  1.592685  0  0.225  0.64051  0  4.162383  0
C  C34  1  0.98448110  0.74314351  0.76622212  1  1.468275  0  0.224227  0.642723  0  4.08604  0
C  C35  1  0.73171032  0.00269039  0.48984663  1  1.578862  0  0.223711  0.640613  0  4.163962  0
C  C36  1  0.00571996  0.27143429  0.23753605  1  1.462565  0  0.224907  0.642895  0  4.083289  0
C  C37  1  0.27646806  0.99583971  0.49635490  1  1.581612  0  0.22138  0.656238  0  4.157593  0
C  C38  1  0.27479429  0.73358568  0.49467212  1  1.588602  0  0.222187  0.658056  0  4.150538  0
C  C39  1  0.99296601  0.99958309  0.77636060  1  1.579741  0  0.221541  0.657479  0  4.154473  0
C  C40  1  0.73124586  0.28062533  0.49613513  1  1.585986  0  0.223918  0.639381  0  4.161833  0
C  C41  1  0.99731636  0.99845405  0.22964573  1  1.610937  0  0.225224  0.641985  0  4.15822  0
C  C42  1  0.92372668  0.42531358  0.56319322  1  0.57837  0  0.080584  0.270085  0  4.106667  0
C  C43  1  0.06131564  0.59330837  0.42243975  1  0.019074  0  -0.086378  -0.131563  0  3.95719  0
C  C44  1  0.99164796  0.36705160  0.50058699  1  -0.138949  0  -0.037786  -0.238204  0  3.920357  0
C  C45  1  0.99458261  0.64992554  0.48554351  1  -0.150921  0  -0.020255  -0.101957  0  3.950038  0
C  C46  1  0.03559369  0.51156929  0.45000328  1  -0.133734  0  -0.023352  0.007988  0  4.099549  0
C  C47  1  0.94917338  0.50796044  0.53396224  1  -0.176668  0  -0.042007  -0.160057  0  4.125534  0
C  C48  1  0.42361892  0.92570338  0.08847624  1  0.567538  0  0.082742  0.274236  0  4.102978  0
C  C49  1  0.58958379  0.06535951  0.92096611  1  -0.030468  0  -0.088403  -0.134  0  3.961562  0
C  C50  1  0.36995495  0.98911169  0.14601374  1  -0.097433  0  -0.038705  -0.239492  0  3.921616  0
C  C51  1  0.64086923  0.00338255  0.86332943  1  -0.132371  0  -0.019677  -0.103043  0  3.951833  0
C  C52  1  0.51048449  0.03722147  0.00342461  1  -0.135926  0  -0.023874  0.007732  0  4.103484  0
C  C53  1  0.50379389  0.95366698  0.00682247  1  -0.158694  0  -0.041352  -0.160229  0  4.121751  0
C  C54  1  0.05752206  0.92823400  0.91777457  1  0.54598  0  0.08202  0.271769  0  4.099307  0
C  C55  1  0.92702111  0.06241748  0.09496395  1  0.00956  0  -0.089515  -0.135918  0  3.963347  0
C  C56  1  0.99152231  0.99591242  0.86730562  1  -0.111093  0  -0.038675  -0.239223  0  3.917686  0
C  C57  1  0.99413379  0.99618946  0.14314159  1  -0.194982  0  -0.020646  -0.103148  0  3.945028  0
C  C58  1  0.94936820  0.03777637  0.01304654  1  -0.127937  0  -0.024092  0.010212  0  4.100448  0
C  C59  1  0.03328949  0.95256912  0.00087629  1  -0.157963  0  -0.0417  -0.162544  0  4.125407  0
C  C60  1  0.41610963  0.59879667  0.55978370  1  0.556617  0  0.081509  0.272135  0  4.103173  0
C  C61  1  0.59653379  0.42098583  0.42631172  1  0.083668  0  -0.089077  -0.133271  0  3.963276  0
C  C62  1  0.36581480  0.64759429  0.49352915  1  -0.118407  0  -0.038127  -0.238317  0  3.915506  0
C  C63  1  0.64464155  0.37204037  0.49344396  1  -0.223029  0  -0.020835  -0.103693  0  3.946099  0
C  C64  1  0.51355775  0.50413400  0.44957307  1  -0.177541  0  -0.02396  0.008285  0  4.102674  0
C  C65  1  0.50040783  0.51677345  0.53441433  1  -0.150932  0  -0.042088  -0.162123  0  4.127127  0
C  C66  1  0.04137709  0.61277188  0.90738964  1  0.464423  0  0.116105  0.27587  0  4.019871  0
C  C67  1  0.91028569  0.61427693  0.87601662  1  -0.063131  0  -0.11655  -0.224741  0  4.061583  0
C  C68  1  0.89647242  0.53451690  0.95551645  1  0.322875  0  0.06186  0.209666  0  4.085765  0
C  C69  1  0.95653788  0.48881969  0.01553698  1  0.017702  0  -0.013745  -0.091565  0  3.908832  0
C  C70  1  0.93926704  0.41049356  0.10513471  1  0.493114  0  0.113363  0.271066  0  4.021965  0
C  C71  1  0.09767571  0.38258613  0.10950520  1  -0.007173  0  -0.113815  -0.220882  0  4.053321  0
C  C72  1  0.11095642  0.46262664  0.03012518  1  0.2798  0  0.064022  0.212583  0  4.089191  0
C  C73  1  0.03674030  0.52192953  0.98427906  1  0.049331  0  -0.013188  -0.094202  0  3.908476  0
C  C74  1  0.97909364  0.65663881  0.85164832  1  0.041467  0  -0.046011  -0.173686  0  4.011163  0
C  C75  1  0.01205774  0.35665004  0.15056746  1  -0.012568  0  -0.045634  -0.174069  0  4.011887  0
C  C76  1  0.41987943  0.05976292  0.42531344  1  0.582682  0  0.083443  0.27469  0  4.100221  0
C  C77  1  0.59726778  0.93178693  0.55043158  1  0.073429  0  -0.08879  -0.133584  0  3.963968  0
C  C78  1  0.36862352  0.99404992  0.49092441  1  -0.094124  0  -0.037331  -0.238184  0  3.923773  0
C  C79  1  0.64601952  0.99867036  0.48689700  1  -0.201587  0  -0.021668  -0.105561  0  3.960031  0
C  C80  1  0.51526215  0.95300629  0.52788814  1  -0.153417  0  -0.023374  0.009317  0  4.104019  0
C  C81  1  0.50374527  0.03593256  0.44692311  1  -0.1881  0  -0.041461  -0.160061  0  4.124527  0
S  S82  1  0.08559524  0.41368182  0.40649200  1  0.273879  0  0.074776  0.122588  0  2.755744  0
S  S83  1  0.89946297  0.60496922  0.57883708  1  0.227807  0  0.058665  0.097752  0  2.788809  0
S  S84  1  0.41838235  0.08157505  0.10070428  1  0.251529  0  0.067548  0.111494  0  2.762408  0
S  S85  1  0.59447305  0.90975178  0.90891655  1  0.253853  0  0.066078  0.110565  0  2.783081  0
S  S86  1  0.89987547  0.08804774  0.92249952  1  0.253096  0  0.066247  0.109431  0  2.747871  0
S  S87  1  0.08457669  0.90276841  0.09002254  1  0.243759  0  0.06834  0.111972  0  2.771239  0
S  S88  1  0.42255936  0.59336295  0.40042247  1  0.26157  0  0.070191  0.1158  0  2.744866  0
S  S89  1  0.58998807  0.42686643  0.58528707  1  0.215518  0  0.06491  0.107865  0  2.774864  0
S  S90  1  0.42352382  0.90354897  0.57753188  1  0.263852  0  0.069018  0.113955  0  2.752629  0
S  S91  1  0.59363133  0.08749284  0.39841020  1  0.233189  0  0.062958  0.104983  0  2.777316  0
N  N92  1  0.19902183  0.48405595  0.99496771  1  -1.158946  0  -0.609757  -0.630285  0  3.289151  0
N  N93  1  0.10302965  0.65543912  0.89084698  1  -1.288393  0  -0.591209  -0.602762  0  3.386466  0
N  N94  1  0.82295235  0.49883423  0.97563704  1  -1.165383  0  -0.610718  -0.628882  0  3.293636  0
N  N95  1  0.85379957  0.38996724  0.14523918  1  -1.287803  0  -0.596756  -0.60979  0  3.374415  0
O  O96  1  0.92528591  0.77615306  0.55339274  1  -1.182964  0  -0.356992  -0.616581  0  2.295436  0
O  O97  1  0.24490565  0.05940983  0.27014747  1  -1.176062  0  -0.359221  -0.620271  0  2.280404  0
O  O98  1  0.06723315  0.23688364  0.43679412  1  -1.179847  0  -0.35967  -0.619551  0  2.282268  0
O  O99  1  0.75898823  0.94179077  0.73131945  1  -1.179454  0  -0.356614  -0.616228  0  2.294346  0
O  O100  1  0.05362205  0.77807482  0.73405423  1  -1.185502  0  -0.356294  -0.626312  0  2.307834  0
O  O101  1  0.76553090  0.07135727  0.42457094  1  -1.179782  0  -0.355308  -0.618185  0  2.271273  0
O  O102  1  0.93380021  0.23879926  0.27279778  1  -1.189077  0  -0.361938  -0.634304  0  2.310075  0
O  O103  1  0.23997752  0.92991293  0.56534219  1  -1.183272  0  -0.357428  -0.618976  0  2.254724  0
O  O104  1  0.24185261  0.76528356  0.42561374  1  -1.183619  0  -0.358867  -0.624408  0  2.251372  0
O  O105  1  0.92463744  0.07027182  0.74278103  1  -1.186236  0  -0.358206  -0.624268  0  2.250509  0
O  O106  1  0.76232156  0.24650426  0.56668114  1  -1.168099  0  -0.348782  -0.610846  0  2.260298  0
O  O107  1  0.06694560  0.92972531  0.26172513  1  -1.172321  0  -0.349941  -0.611682  0  2.26346  0
O  O108  1  0.06357944  0.93257652  0.73669414  1  -1.176795  0  -0.361664  -0.606486  0  2.280537  0
O  O109  1  0.76639754  0.24265225  0.42805347  1  -1.180353  0  -0.360522  -0.617674  0  2.265837  0
O  O110  1  0.93057890  0.07012441  0.26391315  1  -1.184931  0  -0.359814  -0.615261  0  2.265952  0
O  O111  1  0.23453099  0.76959281  0.56540023  1  -1.170414  0  -0.361853  -0.604177  0  2.278973  0
O  O112  1  0.91995585  0.77910859  0.72510051  1  -1.182328  0  -0.377964  -0.634639  0  2.31145  0
O  O113  1  0.23875763  0.06481008  0.43202136  1  -1.177517  0  -0.364286  -0.60205  0  2.298903  0
O  O114  1  0.07476430  0.23113452  0.27378141  1  -1.180575  0  -0.370117  -0.626093  0  2.312591  0
O  O115  1  0.76354338  0.93741921  0.55918599  1  -1.176914  0  -0.359934  -0.612118  0  2.277845  0
O  O116  1  0.75904258  0.07753365  0.73758429  1  -1.179457  0  -0.355145  -0.610542  0  2.248978  0
O  O117  1  0.06810638  0.76921251  0.41860548  1  -1.176702  0  -0.353706  -0.608043  0  2.248912  0
O  O118  1  0.24303749  0.92376007  0.26591342  1  -1.172995  0  -0.361448  -0.60628  0  2.260956  0
O  O119  1  0.92621219  0.24058813  0.57321777  1  -1.175156  0  -0.361261  -0.605356  0  2.261506  0
O  O120  1  0.81669169  0.06783063  0.55744377  1  -1.257017  0  -0.69368  -1.070998  0  2.350667  0
O  O121  1  0.05876693  0.06212779  0.56301277  1  -1.241848  0  -0.693446  -1.071528  0  2.358694  0
O  O122  1  0.06371021  0.05860617  0.32023160  1  -1.22963  0  -0.694493  -1.069226  0  2.360169  0
O  O123  1  0.05795458  0.82508757  0.55341135  1  -1.234605  0  -0.694559  -1.069603  0  2.362459  0
O  O124  1  0.13350117  0.95613815  0.45511295  1  -1.196094  0  -0.78852  -1.149425  0  2.126885  0
O  O125  1  0.95595231  0.95982651  0.45060955  1  -1.202285  0  -0.788992  -1.148556  0  2.114437  0
O  O126  1  0.95599864  0.13452308  0.45871278  1  -1.198226  0  -0.79109  -1.147926  0  2.130853  0
O  O127  1  0.95157455  0.96327486  0.62962193  1  -1.199294  0  -0.790778  -1.147125  0  2.130329  0
O  O128  1  0.84431632  0.40391820  0.64184242  1  -1.106222  0  -0.334094  -0.401428  0  2.282952  0
O  O129  1  0.40008252  0.84831354  0.10894733  1  -1.097416  0  -0.332124  -0.400617  0  2.281793  0
O  O130  1  0.13522437  0.84959724  0.88973612  1  -1.087123  0  -0.32986  -0.395337  0  2.287144  0
O  O131  1  0.38665892  0.62655693  0.63871304  1  -1.085082  0  -0.332645  -0.399633  0  2.289282  0
O  O132  1  0.39126775  0.13663509  0.35179120  1  -1.104665  0  -0.329347  -0.396628  0  2.291393  0
