# generated using pymatgen
data_AlH10C14N2O5
_symmetry_space_group_name_H-M   'P 1'
_cell_length_a   6.65161548
_cell_length_b   11.15278449
_cell_length_c   17.72067185
_cell_angle_alpha   84.49972673
_cell_angle_beta   79.90657418
_cell_angle_gamma   72.07542866
_symmetry_Int_Tables_number   1
_chemical_formula_structural   AlH10C14N2O5
_chemical_formula_sum   'Al2 H20 C28 N4 O10'
_cell_volume   1230.19265482
_cell_formula_units_Z   2
loop_
 _symmetry_equiv_pos_site_id
 _symmetry_equiv_pos_as_xyz
  1  'x, y, z'
loop_
 _atom_site_type_symbol
 _atom_site_label
 _atom_site_symmetry_multiplicity
 _atom_site_fract_x
 _atom_site_fract_y
 _atom_site_fract_z
 _atom_site_occupancy
 _atom_site_pbe_bader_charge
 _atom_site_pbe_bader_spin_density
 _atom_site_pbe_cm5_charge
 _atom_site_pbe_ddec_charge
 _atom_site_pbe_ddec_spin_density
 _atom_site_pbe_ddec_sum_bond_order
 _atom_site_pbe_magmom
Al  Al0  1  0.49120092  0.50562691  0.50285759  1  2.502419  0  0.391983  1.637343  0  2.589486  0
Al  Al1  1  0.98961841  0.50868431  0.50296214  1  2.499772  0  0.393203  1.633542  0  2.590283  0
H  H2  1  0.29566602  0.35298804  0.53691510  1  0.606641  0  0.345616  0.418738  0  0.878644  0
H  H3  1  0.68487349  0.65692520  0.45652452  1  0.621641  0  0.344201  0.418524  0  0.880569  0
H  H4  1  0.70012356  0.42746333  0.28093949  1  0.114055  0  0.108235  0.120405  0  0.997426  0
H  H5  1  0.78971839  0.40430814  0.13851411  1  0.099378  0  0.099327  0.102741  0  1.024107  0
H  H6  1  0.03015989  0.53408446  0.26458734  1  0.108567  0  0.11046  0.127754  0  0.996871  0
H  H7  1  0.91892360  0.54977723  0.73760222  1  0.105129  0  0.110238  0.128411  0  0.997362  0
H  H8  1  0.36121858  0.43535615  0.73194709  1  0.090357  0  0.105117  0.118139  0  1.006551  0
H  H9  1  0.30211195  0.41299458  0.87562362  1  0.106311  0  0.098426  0.101737  0  1.024877  0
H  H10  1  0.19100245  0.24184837  0.39023346  1  0.061807  0  0.101151  0.107314  0  1.032823  0
H  H11  1  0.51827717  0.12607117  0.30835081  1  0.06304  0  0.097789  0.095304  0  1.001587  0
H  H12  1  0.42471018  0.77326120  0.40113908  1  0.019588  0  0.100959  0.10015  0  1.047155  0
H  H13  1  0.63578531  0.88952279  0.31391646  1  0.04884  0  0.097463  0.094325  0  0.997691  0
H  H14  1  0.12410107  0.54085737  0.05425667  1  0.461823  0  0.297802  0.29073  0  0.973088  0
H  H15  1  0.93249464  0.57565942  0.13452647  1  0.436179  0  0.310617  0.305107  0  0.942172  0
H  H16  1  0.83375862  0.55211192  0.94773251  1  0.447518  0  0.299059  0.29297  0  0.970502  0
H  H17  1  0.98373548  0.58953637  0.86454928  1  0.424967  0  0.311478  0.306277  0  0.939132  0
H  H18  1  0.76533146  0.78870926  0.58534155  1  0.451527  0  0.304338  0.307048  0  0.966288  0
H  H19  1  0.57693402  0.92962313  0.59727524  1  0.449365  0  0.3069  0.297404  0  0.945484  0
H  H20  1  0.58552447  0.22827877  0.59630026  1  0.447489  0  0.306059  0.299084  0  0.968503  0
H  H21  1  0.60153896  0.08796886  0.64444702  1  0.443807  0  0.303882  0.289745  0  0.954871  0
C  C22  1  0.85821251  0.27989865  0.49535005  1  1.519244  0  0.272341  0.671555  0  4.067469  0
C  C23  1  0.68397405  0.50233117  0.64201183  1  1.508875  0  0.260562  0.627888  0  4.110463  0
C  C24  1  0.12931083  0.73455449  0.50793762  1  1.555985  0  0.27454  0.679597  0  4.051821  0
C  C25  1  0.30476100  0.49985906  0.36418780  1  1.558212  0  0.265187  0.635498  0  4.099203  0
C  C26  1  0.35956774  0.48390913  0.27979427  1  -0.006518  0  -0.015175  -0.018349  0  4.013274  0
C  C27  1  0.57511056  0.44719490  0.24521053  1  -0.016922  0  -0.100386  -0.135057  0  4.023831  0
C  C28  1  0.62380645  0.43543672  0.16640598  1  -0.121734  0  -0.092872  -0.12298  0  4.013679  0
C  C29  1  0.46071396  0.46450147  0.12029288  1  0.105986  0  -0.017544  0.021044  0  4.09937  0
C  C30  1  0.24201735  0.50077195  0.15571602  1  0.430187  0  0.105441  0.270582  0  4.066244  0
C  C31  1  0.19569684  0.50754556  0.23579833  1  -0.007591  0  -0.094945  -0.217894  0  3.93419  0
C  C32  1  0.50844864  0.46237170  0.03952268  1  -0.589139  0  -0.050884  -0.107228  0  4.155371  0
C  C33  1  0.53447875  0.46588258  0.96921953  1  0.193084  0  -0.052293  -0.113731  0  4.159598  0
C  C34  1  0.57220817  0.47334846  0.88825575  1  0.058952  0  -0.017582  0.023814  0  4.098003  0
C  C35  1  0.74949466  0.51312480  0.84939924  1  0.492652  0  0.104054  0.268188  0  4.071848  0
C  C36  1  0.78313980  0.52136477  0.76893549  1  -0.071837  0  -0.096476  -0.216195  0  3.935124  0
C  C37  1  0.64368553  0.49405068  0.72747977  1  -0.021216  0  -0.020233  -0.026081  0  4.026945  0
C  C38  1  0.46768295  0.45613571  0.76558990  1  -0.015265  0  -0.107208  -0.143592  0  4.042201  0
C  C39  1  0.43508664  0.44460906  0.84503418  1  -0.045574  0  -0.094115  -0.122585  0  4.016871  0
C  C40  1  0.92958012  0.14013212  0.49536375  1  0.054767  0  -0.02855  -0.209651  0  3.95962  0
C  C41  1  0.12243002  0.07472392  0.44771819  1  0.012335  0  -0.010958  0.05812  0  4.005194  0
C  C42  1  0.80481292  0.07554759  0.54369090  1  0.472248  0  0.097776  0.191663  0  4.04917  0
C  C43  1  0.24398380  0.13920319  0.39465551  1  -0.098105  0  -0.098008  -0.135229  0  3.98285  0
C  C44  1  0.42748149  0.07416433  0.34837247  1  0.051179  0  -0.101983  -0.089998  0  4.060406  0
C  C45  1  0.06132766  0.87447447  0.50249556  1  0.005648  0  -0.032199  -0.21965  0  3.953576  0
C  C46  1  0.86746782  0.93999634  0.54496559  1  0.406337  0  0.099217  0.197473  0  4.055514  0
C  C47  1  0.19133714  0.93949865  0.45215258  1  -0.046699  0  -0.01096  0.061618  0  4.004781  0
C  C48  1  0.37715908  0.87568888  0.40189621  1  -0.014858  0  -0.105399  -0.154018  0  4.009492  0
C  C49  1  0.49385691  0.94123227  0.35175935  1  -0.075644  0  -0.103792  -0.093431  0  4.075757  0
N  N50  1  0.08191662  0.52580572  0.11142432  1  -1.256692  0  -0.589497  -0.612575  0  3.356291  0
N  N51  1  0.88685493  0.53864518  0.89100636  1  -1.239593  0  -0.590092  -0.614074  0  3.359864  0
N  N52  1  0.73527509  0.88185154  0.59416181  1  -1.217858  0  -0.600033  -0.608961  0  3.288216  0
N  N53  1  0.61843577  0.13373114  0.59229845  1  -1.223488  0  -0.595282  -0.601932  0  3.311687  0
O  O54  1  0.66272593  0.33492044  0.48850195  1  -1.266225  0  -0.234832  -0.592657  0  2.339255  0
O  O55  1  0.85724165  0.52377216  0.60951092  1  -1.259179  0  -0.24092  -0.590217  0  2.335842  0
O  O56  1  0.98968099  0.67962722  0.50249317  1  -1.271375  0  -0.235203  -0.604946  0  2.350513  0
O  O57  1  0.44768253  0.51764738  0.39752872  1  -1.263205  0  -0.239019  -0.599366  0  2.359628  0
O  O58  1  0.32079427  0.67656691  0.51772736  1  -1.268431  0  -0.234383  -0.592089  0  2.340633  0
O  O59  1  0.11923941  0.49647616  0.39634914  1  -1.264544  0  -0.239152  -0.592862  0  2.344334  0
O  O60  1  0.99109710  0.33658739  0.50452349  1  -1.265044  0  -0.230553  -0.59339  0  2.358188  0
O  O61  1  0.54237623  0.48489000  0.60771033  1  -1.268415  0  -0.241026  -0.600422  0  2.365828  0
O  O62  1  0.25664786  0.44461213  0.53480548  1  -1.410732  0  -0.451453  -0.983775  0  2.178027  0
O  O63  1  0.72398380  0.56744123  0.47073876  1  -1.43003  0  -0.450411  -0.986897  0  2.204325  0
