# generated using pymatgen
data_AlH7C9NO6
_symmetry_space_group_name_H-M   'P 1'
_cell_length_a   6.72108994
_cell_length_b   8.71378515
_cell_length_c   15.36738323
_cell_angle_alpha   79.82712136
_cell_angle_beta   77.02332549
_cell_angle_gamma   75.98266124
_symmetry_Int_Tables_number   1
_chemical_formula_structural   AlH7C9NO6
_chemical_formula_sum   'Al2 H14 C18 N2 O12'
_cell_volume   843.76697528
_cell_formula_units_Z   2
loop_
 _symmetry_equiv_pos_site_id
 _symmetry_equiv_pos_as_xyz
  1  'x, y, z'
loop_
 _atom_site_type_symbol
 _atom_site_label
 _atom_site_symmetry_multiplicity
 _atom_site_fract_x
 _atom_site_fract_y
 _atom_site_fract_z
 _atom_site_occupancy
 _atom_site_pbe_bader_charge
 _atom_site_pbe_bader_spin_density
 _atom_site_pbe_cm5_charge
 _atom_site_pbe_ddec_charge
 _atom_site_pbe_ddec_spin_density
 _atom_site_pbe_ddec_sum_bond_order
 _atom_site_pbe_magmom
Al  Al0  1  0.49993313  0.50007849  0.49998981  1  2.506906  0  0.402821  1.645237  0  2.570042  0
Al  Al1  1  0.99991868  0.50011123  0.49997387  1  2.508152  0  0.396721  1.653636  0  2.583051  0
H  H2  1  0.24730120  0.35515547  0.59831764  1  0.628057  0  0.357669  0.435525  0  0.843228  0
H  H3  1  0.75219547  0.64552132  0.40187570  1  0.626857  0  0.357322  0.434775  0  0.843509  0
H  H4  1  0.16526900  0.44790054  0.06746057  1  0.071846  0  0.106099  0.121242  0  1.019608  0
H  H5  1  0.83485673  0.55196489  0.93252866  1  0.071988  0  0.106184  0.121302  0  1.019598  0
H  H6  1  0.30246436  0.48461168  0.77376657  1  0.129696  0  0.103749  0.109563  0  1.034777  0
H  H7  1  0.22157818  0.46868613  0.93754071  1  0.052037  0  0.098484  0.0989  0  1.034455  0
H  H8  1  0.69773435  0.51491217  0.22626905  1  0.126803  0  0.103914  0.10975  0  1.034849  0
H  H9  1  0.77885768  0.53055409  0.06251918  1  0.051713  0  0.098415  0.099125  0  1.033758  0
H  H10  1  0.23770937  0.15260850  0.48424593  1  0.486773  0  0.304219  0.301971  0  0.993619  0
H  H11  1  0.41028106  0.97619800  0.45908451  1  0.460068  0  0.298584  0.288568  0  0.984295  0
H  H12  1  0.76216911  0.84760143  0.51587406  1  0.487823  0  0.304328  0.302124  0  0.993518  0
H  H13  1  0.58969503  0.02406946  0.54091565  1  0.460812  0  0.298508  0.288531  0  0.984402  0
H  H14  1  0.04230057  0.43158455  0.30152865  1  0.651152  0  0.314017  0.356062  0  0.963338  0
H  H15  1  0.95762918  0.56852954  0.69843216  1  0.649819  0  0.3139  0.355862  0  0.962968  0
C  C16  1  0.66080110  0.52118818  0.66130167  1  1.479709  0  0.263338  0.655075  0  4.080056  0
C  C17  1  0.83141034  0.21223989  0.51103826  1  1.492806  0  0.260257  0.612094  0  4.077381  0
C  C18  1  0.33910881  0.47889545  0.33867757  1  1.479282  0  0.263541  0.654908  0  4.080015  0
C  C19  1  0.16851300  0.78797099  0.48890459  1  1.491452  0  0.260736  0.613161  0  4.0765  0
C  C20  1  0.10506116  0.96075394  0.49448639  1  0.518253  0  0.079284  0.047545  0  4.007291  0
C  C21  1  0.89488247  0.03946076  0.50544312  1  0.454207  0  0.079354  0.048046  0  4.006672  0
C  C22  1  0.38630923  0.47779319  0.24082379  1  0.014718  0  -0.040725  -0.210797  0  4.002627  0
C  C23  1  0.61373601  0.52208570  0.75918018  1  0.015159  0  -0.04053  -0.210849  0  4.003416  0
C  C24  1  0.23761720  0.45682604  0.19368900  1  0.50612  0  0.094783  0.323075  0  4.062923  0
C  C25  1  0.28532255  0.46502893  0.09973265  1  -0.045604  0  -0.102793  -0.252844  0  3.91846  0
C  C26  1  0.76245241  0.54306343  0.80629359  1  0.506394  0  0.094787  0.323069  0  4.063179  0
C  C27  1  0.71483539  0.53480074  0.90025988  1  -0.045597  0  -0.102728  -0.252765  0  3.918044  0
C  C28  1  0.41928781  0.49703635  0.80941488  1  -0.094182  0  -0.081187  -0.048382  0  4.005299  0
C  C29  1  0.37418960  0.48893892  0.90215480  1  0.061724  0  -0.102665  -0.162315  0  3.991216  0
C  C30  1  0.58090397  0.50258080  0.19061416  1  -0.088368  0  -0.081172  -0.048128  0  4.00463  0
C  C31  1  0.62610280  0.51054792  0.09787689  1  0.06007  0  -0.102645  -0.162992  0  3.990724  0
C  C32  1  0.47744048  0.49377359  0.04990718  1  0.047092  0  0.003747  0.102739  0  3.989041  0
C  C33  1  0.52281191  0.50587040  0.95010686  1  -0.023059  0  0.003761  0.102802  0  3.988539  0
N  N34  1  0.26963506  0.03158855  0.49180350  1  -1.236686  0  -0.597826  -0.58321  0  3.399158  0
N  N35  1  0.73025144  0.96862271  0.50815726  1  -1.23858  0  -0.597972  -0.58378  0  3.398923  0
O  O36  1  0.52173842  0.50425873  0.62188983  1  -1.264075  0  -0.233591  -0.585793  0  2.348851  0
O  O37  1  0.96901684  0.28585107  0.51946115  1  -1.272003  0  -0.243939  -0.612015  0  2.406296  0
O  O38  1  0.15200903  0.46476651  0.38034574  1  -1.267385  0  -0.245247  -0.623458  0  2.386978  0
O  O39  1  0.35943392  0.72133148  0.49148494  1  -1.257731  0  -0.241579  -0.589139  0  2.333187  0
O  O40  1  0.47815467  0.49586498  0.37810385  1  -1.263334  0  -0.233787  -0.585794  0  2.348145  0
O  O41  1  0.03087055  0.71436733  0.48049967  1  -1.271169  0  -0.244127  -0.612461  0  2.405912  0
O  O42  1  0.84786760  0.53544200  0.61961814  1  -1.267731  0  -0.245186  -0.623562  0  2.38682  0
O  O43  1  0.64049725  0.27885854  0.50846514  1  -1.258644  0  -0.24159  -0.588746  0  2.333357  0
O  O44  1  0.24681879  0.43392600  0.54527248  1  -1.434072  0  -0.449079  -0.995472  0  2.19157  0
O  O45  1  0.75301062  0.56627693  0.45470879  1  -1.432877  0  -0.448536  -0.994317  0  2.19154  0
O  O46  1  0.04809714  0.42890140  0.23614162  1  -1.169011  0  -0.345764  -0.438985  0  2.291577  0
O  O47  1  0.95191936  0.57109768  0.76383450  1  -1.167383  0  -0.345853  -0.438885  0  2.291445  0
