# generated using pymatgen
data_Zr6H17C52S10N2O32F5
_symmetry_space_group_name_H-M   'P 1'
_cell_length_a   16.46317024
_cell_length_b   16.45346192
_cell_length_c   16.52497217
_cell_angle_alpha   61.64784530
_cell_angle_beta   59.81641962
_cell_angle_gamma   60.28052064
_symmetry_Int_Tables_number   1
_chemical_formula_structural   Zr6H17C52S10N2O32F5
_chemical_formula_sum   'Zr6 H17 C52 S10 N2 O32 F5'
_cell_volume   3204.99197561
_cell_formula_units_Z   1
loop_
 _symmetry_equiv_pos_site_id
 _symmetry_equiv_pos_as_xyz
  1  'x, y, z'
loop_
 _atom_site_type_symbol
 _atom_site_label
 _atom_site_symmetry_multiplicity
 _atom_site_fract_x
 _atom_site_fract_y
 _atom_site_fract_z
 _atom_site_occupancy
 _atom_site_pbe_bader_charge
 _atom_site_pbe_bader_spin_density
 _atom_site_pbe_cm5_charge
 _atom_site_pbe_ddec_charge
 _atom_site_pbe_ddec_spin_density
 _atom_site_pbe_ddec_sum_bond_order
 _atom_site_pbe_magmom
Zr  Zr0  1  0.88732146  0.90327392  0.59747589  1  2.632822  0  1.629377  2.37237  0  2.78589  0
Zr  Zr1  1  0.11150125  0.10263279  0.39813395  1  2.638247  0  1.631199  2.374855  0  2.777232  0
Zr  Zr2  1  0.10132638  0.89353570  0.60777226  1  2.638936  0  1.623533  2.378317  0  2.732617  0
Zr  Zr3  1  0.89748449  0.11244011  0.38869612  1  2.634624  0  1.618485  2.374702  0  2.738107  0
Zr  Zr4  1  0.10848621  0.89365354  0.38934506  1  2.638961  0  1.619998  2.378961  0  2.728292  0
Zr  Zr5  1  0.89027877  0.11164620  0.60732611  1  2.637992  0  1.620248  2.37776  0  2.731687  0
H  H6  1  0.07629227  0.75282999  0.57821874  1  0.591374  0  0.332045  0.42535  0  0.852852  0
H  H7  1  0.09257105  0.08262199  0.24793064  1  0.605604  0  0.332426  0.426445  0  0.853446  0
H  H8  1  0.08295873  0.08161196  0.59012251  1  0.60794  0  0.330799  0.424316  0  0.85426  0
H  H9  1  0.74465199  0.09491592  0.57678621  1  0.594202  0  0.330705  0.424291  0  0.85405  0
H  H10  1  0.12467622  0.61292341  0.36164952  1  0.125588  0  0.123677  0.149751  0  0.965896  0
H  H11  1  0.61166532  0.12624308  0.89971820  1  0.11564  0  0.12208  0.147563  0  0.970064  0
H  H12  1  0.86686442  0.12424414  0.11856040  1  0.130481  0  0.119319  0.144709  0  0.974644  0
H  H13  1  0.62347210  0.39800650  0.36227853  1  0.106575  0  0.121542  0.147521  0  0.96968  0
H  H14  1  0.09609539  0.64272910  0.87155379  1  0.042792  0  0.105442  0.110366  0  1.025828  0
H  H15  1  0.84199736  0.65485918  0.85008846  1  0.078871  0  0.103351  0.119864  0  1.011284  0
H  H16  1  0.88899785  0.37672473  0.13713981  1  0.050771  0  0.102148  0.105611  0  1.032493  0
H  H17  1  0.15279311  0.35451526  0.14926095  1  0.097885  0  0.104324  0.121822  0  1.010594  0
H  H18  1  0.62180812  0.87627918  0.60972752  1  0.144559  0  0.122181  0.148333  0  0.97141  0
H  H19  1  0.20396295  0.55160095  0.92503134  1  0.44248  0  0.307218  0.301008  0  0.958533  0
H  H20  1  0.24135884  0.46388530  0.02048969  1  0.456466  0  0.311291  0.304845  0  0.938549  0
H  H21  1  0.82194548  0.42860770  0.04296107  1  0.444632  0  0.302877  0.293622  0  0.964186  0
H  H22  1  0.77397590  0.52569478  0.95849419  1  0.430865  0  0.309556  0.303288  0  0.93748  0
C  C23  1  0.99354275  0.73977059  0.48436743  1  1.59278  0  0.226122  0.643103  0  4.158134  0
C  C24  1  0.28185547  0.98797444  0.23555438  1  1.587843  0  0.223629  0.662657  0  4.156127  0
C  C25  1  0.99731052  0.27269658  0.50507797  1  1.581391  0  0.224495  0.663422  0  4.153711  0
C  C26  1  0.72399716  0.00896044  0.76810556  1  1.576526  0  0.22719  0.644404  0  4.156443  0
C  C27  1  0.97854715  0.74193177  0.76656613  1  1.513059  0  0.234073  0.64183  0  4.086199  0
C  C28  1  0.73117021  0.00735592  0.48519330  1  1.577678  0  0.224692  0.642395  0  4.159277  0
C  C29  1  0.01250096  0.27123040  0.23633060  1  1.532025  0  0.235129  0.643652  0  4.081923  0
C  C30  1  0.27565563  0.99134663  0.50132955  1  1.61363  0  0.223728  0.664082  0  4.157966  0
C  C31  1  0.27182527  0.73056417  0.49709002  1  1.586857  0  0.224028  0.665122  0  4.148285  0
C  C32  1  0.98994383  0.99712767  0.77798495  1  1.595564  0  0.224008  0.663932  0  4.152232  0
C  C33  1  0.73389698  0.28238249  0.49313422  1  1.580206  0  0.226348  0.644375  0  4.153291  0
C  C34  1  0.00039427  0.00042742  0.22627535  1  1.574699  0  0.227295  0.646445  0  4.149137  0
C  C35  1  0.92637748  0.42346617  0.56219258  1  0.566889  0  0.100786  0.251178  0  4.083502  0
C  C36  1  0.06097106  0.59383603  0.42307076  1  0.079746  0  -0.085983  -0.130777  0  3.956586  0
C  C37  1  0.99452044  0.36475575  0.50108422  1  -0.073912  0  -0.035606  -0.246963  0  3.970669  0
C  C38  1  0.99249552  0.65035947  0.48578181  1  -0.206012  0  -0.020819  -0.11539  0  3.964089  0
C  C39  1  0.03614720  0.51117781  0.45110807  1  -0.145978  0  -0.019768  0.00529  0  4.084316  0
C  C40  1  0.94888775  0.50719517  0.53485305  1  -0.156912  0  -0.033718  -0.139022  0  4.113996  0
C  C41  1  0.42297772  0.92703381  0.08831416  1  0.555074  0  0.100688  0.250371  0  4.085169  0
C  C42  1  0.59012140  0.06492499  0.91887017  1  0.088057  0  -0.086419  -0.13205  0  3.96194  0
C  C43  1  0.37123529  0.98809947  0.14706564  1  -0.093725  0  -0.036733  -0.247642  0  3.973376  0
C  C44  1  0.63910000  0.00372734  0.86103668  1  -0.205809  0  -0.020505  -0.11444  0  3.965049  0
C  C45  1  0.51136861  0.03626292  0.00219627  1  -0.162903  0  -0.02038  0.004976  0  4.087305  0
C  C46  1  0.50291929  0.95343238  0.00541252  1  -0.123427  0  -0.032945  -0.136583  0  4.109664  0
C  C47  1  0.05646180  0.93036384  0.91721293  1  0.614861  0  0.102053  0.25221  0  4.078375  0
C  C48  1  0.92835523  0.06269466  0.09353369  1  -0.060056  0  -0.089925  -0.136611  0  3.969269  0
C  C49  1  0.98970567  0.99556720  0.86766339  1  -0.128847  0  -0.035607  -0.245416  0  3.959575  0
C  C50  1  0.99700115  0.99736790  0.14035906  1  -0.098019  0  -0.020385  -0.115877  0  3.956819  0
C  C51  1  0.95017269  0.03771071  0.01223883  1  -0.106077  0  -0.021078  0.006722  0  4.084926  0
C  C52  1  0.03523899  0.95325298  0.99948283  1  -0.176509  0  -0.032906  -0.138368  0  4.10704  0
C  C53  1  0.41383848  0.59423392  0.56099885  1  0.551184  0  0.099828  0.250611  0  4.080096  0
C  C54  1  0.59747319  0.42159557  0.42507319  1  0.11655  0  -0.087352  -0.131816  0  3.957159  0
C  C55  1  0.36350141  0.64470519  0.49506618  1  -0.120294  0  -0.036149  -0.247446  0  3.962743  0
C  C56  1  0.64540830  0.37222543  0.49257456  1  -0.218934  0  -0.020566  -0.116045  0  3.954186  0
C  C57  1  0.51316305  0.50294150  0.45016141  1  -0.191785  0  -0.019871  0.007784  0  4.079347  0
C  C58  1  0.49908630  0.51341630  0.53668776  1  -0.107679  0  -0.03419  -0.141325  0  4.111266  0
C  C59  1  0.03967213  0.60992394  0.90089691  1  -0.02945  0  -0.098504  -0.166405  0  3.984169  0
C  C60  1  0.89407645  0.61799299  0.88914997  1  -0.014223  0  -0.109985  -0.239876  0  3.971975  0
C  C61  1  0.88596330  0.53574462  0.97039904  1  0.369337  0  0.097923  0.261523  0  4.085375  0
C  C62  1  0.95593933  0.48813336  0.02047403  1  0.025271  0  -0.010857  -0.002293  0  3.973829  0
C  C63  1  0.94908424  0.40576479  0.10434359  1  0.002295  0  -0.102552  -0.173148  0  3.997987  0
C  C64  1  0.09851488  0.39365482  0.11238605  1  0.026727  0  -0.110041  -0.243814  0  3.969973  0
C  C65  1  0.10744517  0.47536133  0.03039803  1  0.398609  0  0.100693  0.26806  0  4.087207  0
C  C66  1  0.03471712  0.52571808  0.98298509  1  0.02297  0  -0.010207  -0.004509  0  3.969602  0
C  C67  1  0.97037032  0.65506677  0.85497609  1  0.030925  0  -0.025234  -0.027856  0  4.051649  0
C  C68  1  0.01935204  0.35953692  0.14932678  1  -0.075796  0  -0.025364  -0.024427  0  4.052983  0
C  C69  1  0.41793968  0.05697048  0.42962103  1  0.537139  0  0.100628  0.251378  0  4.080234  0
C  C70  1  0.59679014  0.93535659  0.55033630  1  0.008944  0  -0.086436  -0.130032  0  3.959055  0
C  C71  1  0.36717439  0.99091957  0.49642742  1  -0.082938  0  -0.036092  -0.247585  0  3.968739  0
C  C72  1  0.64459405  0.00340742  0.48391731  1  -0.141025  0  -0.021699  -0.116327  0  3.963766  0
C  C73  1  0.51425249  0.95490851  0.52990472  1  -0.161455  0  -0.019674  0.006525  0  4.084139  0
C  C74  1  0.50169629  0.03768169  0.44769070  1  -0.14189  0  -0.034155  -0.13976  0  4.114301  0
S  S75  1  0.08814822  0.41272471  0.40791501  1  0.260058  0  0.090642  0.1484  0  2.74522  0
S  S76  1  0.89735695  0.60456481  0.57889190  1  0.281715  0  0.088751  0.150241  0  2.755715  0
S  S77  1  0.42162102  0.07945648  0.10069810  1  0.262216  0  0.086182  0.141247  0  2.749725  0
S  S78  1  0.59121077  0.91076207  0.90683352  1  0.284051  0  0.094453  0.158068  0  2.753237  0
S  S79  1  0.89852822  0.08686540  0.92324245  1  0.257603  0  0.081958  0.134568  0  2.735084  0
S  S80  1  0.08806627  0.90468146  0.08694664  1  0.296398  0  0.096396  0.16162  0  2.734637  0
S  S81  1  0.42212984  0.59247956  0.40066453  1  0.279147  0  0.087739  0.143253  0  2.733112  0
S  S82  1  0.58920530  0.42405900  0.58675370  1  0.292032  0  0.092507  0.156481  0  2.739295  0
S  S83  1  0.42344457  0.90277733  0.58281098  1  0.28588  0  0.091545  0.148137  0  2.728132  0
S  S84  1  0.59079475  0.09117824  0.39573054  1  0.272672  0  0.088746  0.149777  0  2.740011  0
N  N85  1  0.18350615  0.51027583  0.99608291  1  -1.259404  0  -0.594154  -0.617172  0  3.326931  0
N  N86  1  0.80930028  0.50093446  0.00553418  1  -1.23697  0  -0.598635  -0.619445  0  3.316412  0
O  O87  1  0.92203495  0.77783405  0.55196257  1  -1.177113  0  -0.35708  -0.617295  0  2.293946  0
O  O88  1  0.24772364  0.05634834  0.27260167  1  -1.176663  0  -0.355901  -0.613312  0  2.277776  0
O  O89  1  0.07055810  0.23386447  0.43868786  1  -1.178287  0  -0.356127  -0.612948  0  2.274997  0
O  O90  1  0.75581287  0.94354876  0.72816176  1  -1.171174  0  -0.356701  -0.616899  0  2.293802  0
O  O91  1  0.05009632  0.77262572  0.73502828  1  -1.181004  0  -0.355827  -0.617863  0  2.277341  0
O  O92  1  0.76602622  0.07594236  0.41931079  1  -1.172026  0  -0.352039  -0.616744  0  2.253136  0
O  O93  1  0.94164086  0.23971948  0.26707450  1  -1.17907  0  -0.359713  -0.625896  0  2.276536  0
O  O94  1  0.23886546  0.92501437  0.57005033  1  -1.179794  0  -0.350025  -0.612059  0  2.234577  0
O  O95  1  0.23925538  0.76294598  0.42771124  1  -1.170773  0  -0.354016  -0.616376  0  2.247657  0
O  O96  1  0.92207455  0.06787406  0.74388681  1  -1.179803  0  -0.354896  -0.618063  0  2.24689  0
O  O97  1  0.76507707  0.24729114  0.56401539  1  -1.167902  0  -0.35211  -0.614762  0  2.262903  0
O  O98  1  0.06955637  0.93148879  0.25924089  1  -1.179094  0  -0.352116  -0.614189  0  2.262455  0
O  O99  1  0.05907810  0.92846474  0.74055305  1  -1.172607  0  -0.360105  -0.613505  0  2.276408  0
O  O100  1  0.77076659  0.24625683  0.42345026  1  -1.176542  0  -0.358065  -0.612907  0  2.258518  0
O  O101  1  0.93444824  0.07275835  0.25958497  1  -1.177617  0  -0.360203  -0.616916  0  2.258912  0
O  O102  1  0.23156273  0.76509007  0.56865007  1  -1.167647  0  -0.361357  -0.616597  0  2.276343  0
O  O103  1  0.91344773  0.77946844  0.72625477  1  -1.176854  0  -0.36684  -0.623874  0  2.304583  0
O  O104  1  0.23949181  0.06082825  0.43559298  1  -1.180083  0  -0.367236  -0.617013  0  2.309104  0
O  O105  1  0.08008475  0.23102704  0.27408187  1  -1.185729  0  -0.364545  -0.621479  0  2.303485  0
O  O106  1  0.76290793  0.94105660  0.55488380  1  -1.183317  0  -0.362289  -0.612539  0  2.289852  0
O  O107  1  0.75799287  0.07803474  0.73477200  1  -1.179282  0  -0.357611  -0.61135  0  2.253934  0
O  O108  1  0.06588037  0.77052100  0.41802536  1  -1.179953  0  -0.35584  -0.609337  0  2.25114  0
O  O109  1  0.24434427  0.92196495  0.26708996  1  -1.164815  0  -0.360387  -0.612819  0  2.267367  0
O  O110  1  0.92798293  0.23853010  0.57395017  1  -1.169029  0  -0.36103  -0.614087  0  2.268353  0
O  O111  1  0.81699866  0.06982233  0.55381837  1  -1.222429  0  -0.693584  -1.070572  0  2.352905  0
O  O112  1  0.05855521  0.05876925  0.56502310  1  -1.235855  0  -0.692702  -1.069635  0  2.354384  0
O  O113  1  0.06650623  0.05885525  0.31901031  1  -1.232789  0  -0.694403  -1.071337  0  2.359626  0
O  O114  1  0.05480595  0.82388697  0.55418501  1  -1.218161  0  -0.694285  -1.070469  0  2.358483  0
O  O115  1  0.13322803  0.95343999  0.45704951  1  -1.20167  0  -0.789134  -1.15012  0  2.120866  0
O  O116  1  0.95570412  0.96176710  0.44828984  1  -1.202323  0  -0.789423  -1.149524  0  2.116911  0
O  O117  1  0.95796461  0.13470974  0.45702087  1  -1.19698  0  -0.790344  -1.148488  0  2.124916  0
O  O118  1  0.94965832  0.96180936  0.62980888  1  -1.199391  0  -0.79067  -1.148473  0  2.124398  0
F  F119  1  0.84671870  0.40395222  0.64029788  1  -0.624475  0  -0.090146  -0.110403  0  1.351205  0
F  F120  1  0.40013364  0.85071787  0.10627759  1  -0.617126  0  -0.087944  -0.107778  0  1.352211  0
F  F121  1  0.13480251  0.85302540  0.89073249  1  -0.624033  0  -0.087475  -0.106029  0  1.353541  0
F  F122  1  0.38559717  0.61779525  0.64119654  1  -0.622098  0  -0.091047  -0.110866  0  1.351765  0
F  F123  1  0.39156301  0.13296028  0.35498813  1  -0.623376  0  -0.088368  -0.108564  0  1.362773  0
