# generated using pymatgen
data_Sm2Cu3H30C24(NO4)6
_symmetry_space_group_name_H-M   'P 1'
_cell_length_a   13.39290776
_cell_length_b   13.39290532
_cell_length_c   14.59971575
_cell_angle_alpha   89.99999981
_cell_angle_beta   89.99999052
_cell_angle_gamma   120.00010748
_symmetry_Int_Tables_number   1
_chemical_formula_structural   Sm2Cu3H30C24(NO4)6
_chemical_formula_sum   'Sm4 Cu6 H60 C48 N12 O48'
_cell_volume   2267.90175974
_cell_formula_units_Z   2
loop_
 _symmetry_equiv_pos_site_id
 _symmetry_equiv_pos_as_xyz
  1  'x, y, z'
loop_
 _atom_site_type_symbol
 _atom_site_label
 _atom_site_symmetry_multiplicity
 _atom_site_fract_x
 _atom_site_fract_y
 _atom_site_fract_z
 _atom_site_occupancy
 _atom_site_pbe_bader_charge
 _atom_site_pbe_bader_spin_density
 _atom_site_pbe_cm5_charge
 _atom_site_pbe_ddec_charge
 _atom_site_pbe_ddec_spin_density
 _atom_site_pbe_ddec_sum_bond_order
 _atom_site_pbe_magmom
Sm  Sm0  1  0.66666740  0.33333511  0.33170161  1  2.232157  0.002603  1.494266  2.106716  0.003026  2.150151  0.003
Sm  Sm1  1  0.33333212  0.66666456  0.16829845  1  2.232256  0.002602  1.494222  2.106774  0.003027  2.150277  0.003
Sm  Sm2  1  0.33333568  0.66666988  0.66829860  1  2.232101  0.002603  1.494235  2.106632  0.003026  2.150197  0.003
Sm  Sm3  1  0.66666769  0.33333026  0.83170244  1  2.232319  0.002602  1.494217  2.106757  0.003027  2.150212  0.003
Cu  Cu4  1  0.49999930  0.50000025  0.50000148  1  1.054543  0.58078  0.746745  0.769814  0.736674  2.215662  0.579
Cu  Cu5  1  0.50000121  0.00000142  0.49999874  1  1.051699  0.580762  0.746761  0.769777  0.736697  2.21574  0.579
Cu  Cu6  1  0.99999950  0.49999978  0.50000007  1  1.051413  0.580761  0.746743  0.769815  0.736701  2.215834  0.579
Cu  Cu7  1  0.99999945  0.49999975  0.99999884  1  1.051708  0.580763  0.746763  0.769833  0.736698  2.215712  0.579
Cu  Cu8  1  0.49999949  0.99999857  0.00000201  1  1.051326  0.580762  0.746727  0.769883  0.736704  2.215699  0.579
Cu  Cu9  1  0.50000085  0.50000011  0.99999888  1  1.054713  0.580817  0.746765  0.769919  0.736724  2.21574  0.579
H  H10  1  0.63906983  0.67745301  0.58237156  1  0.503796  -0.000171  0.291261  0.253494  7e-05  1.012957  0.0
H  H11  1  0.32254938  0.96161609  0.58237158  1  0.509188  -0.000171  0.291256  0.253467  7e-05  1.013095  0.0
H  H12  1  0.03838212  0.36093136  0.58237161  1  0.512402  -0.000183  0.29124  0.253473  7e-05  1.013123  0.0
H  H13  1  0.96161903  0.32254913  0.91762533  1  0.509294  -0.000171  0.29125  0.253471  7e-05  1.013086  0.0
H  H14  1  0.36093151  0.03838328  0.91762948  1  0.512402  -0.000184  0.291268  0.253501  7e-05  1.013052  0.0
H  H15  1  0.67745210  0.63906917  0.91762603  1  0.503811  -0.000171  0.291237  0.253425  7.1e-05  1.013066  0.0
H  H16  1  0.36093081  0.32254695  0.41763139  1  0.503813  -0.000171  0.291261  0.253511  7e-05  1.012911  0.0
H  H17  1  0.67745243  0.03838419  0.41762657  1  0.509272  -0.000171  0.291248  0.253446  7e-05  1.013114  0.0
H  H18  1  0.96161734  0.63906829  0.41762792  1  0.512391  -0.000183  0.29123  0.253459  7.1e-05  1.01315  0.0
H  H19  1  0.03838129  0.67744965  0.08237283  1  0.509209  -0.000171  0.291266  0.253485  7e-05  1.013106  0.0
H  H20  1  0.63907031  0.96161700  0.08237415  1  0.512368  -0.000184  0.291241  0.25347  7e-05  1.013117  0.0
H  H21  1  0.32254928  0.36093154  0.08237281  1  0.503851  -0.000171  0.291257  0.253466  7e-05  1.013025  0.0
H  H22  1  0.83114813  0.69428264  0.52646224  1  0.065501  0.005895  0.109767  0.105299  0.003015  0.976853  0.003
H  H23  1  0.30571634  0.13686331  0.52646434  1  0.053544  0.005937  0.10973  0.105276  0.003014  0.976832  0.003
H  H24  1  0.86313706  0.16885099  0.52646635  1  0.069068  0.005898  0.109733  0.105264  0.003015  0.976941  0.003
H  H25  1  0.13686547  0.30571864  0.97353607  1  0.053546  0.005937  0.109741  0.105276  0.003015  0.976875  0.003
H  H26  1  0.16885226  0.86313596  0.97353812  1  0.069137  0.005897  0.109741  0.10525  0.003015  0.976822  0.003
H  H27  1  0.69428421  0.83114652  0.97353602  1  0.065497  0.005894  0.109721  0.105255  0.003014  0.976871  0.003
H  H28  1  0.16884985  0.30571552  0.47353797  1  0.065484  0.005895  0.109765  0.105295  0.003015  0.976889  0.003
H  H29  1  0.69428398  0.86313547  0.47353382  1  0.05349  0.005938  0.109734  0.105259  0.003015  0.976912  0.003
H  H30  1  0.13686252  0.83114705  0.47353386  1  0.069089  0.005897  0.109717  0.105263  0.003015  0.9769  0.003
H  H31  1  0.86313485  0.69428014  0.02646278  1  0.053573  0.005937  0.109746  0.10528  0.003014  0.976831  0.003
H  H32  1  0.83114924  0.13686314  0.02646346  1  0.069101  0.005897  0.109735  0.105255  0.003015  0.976888  0.003
H  H33  1  0.30571569  0.16885269  0.02646487  1  0.06546  0.005895  0.109721  0.105254  0.003015  0.976905  0.003
H  H34  1  0.74038071  0.71322239  0.44752167  1  0.097554  0.000248  0.120519  0.122782  2.4e-05  0.971115  0.0
H  H35  1  0.28677580  0.02715494  0.44752307  1  0.065194  0.000252  0.120531  0.122768  2.4e-05  0.971152  0.0
H  H36  1  0.97284182  0.25961986  0.44752302  1  0.098767  0.000249  0.12052  0.122773  2.4e-05  0.971147  0.0
H  H37  1  0.02715531  0.28677710  0.05247705  1  0.065219  0.000252  0.120531  0.122749  2.4e-05  0.971153  0.0
H  H38  1  0.25961950  0.97284250  0.05247977  1  0.098685  0.000249  0.120521  0.122751  2.4e-05  0.971127  0.0
H  H39  1  0.71322106  0.74037615  0.05247631  1  0.097552  0.000248  0.12052  0.122757  2.4e-05  0.971189  0.0
H  H40  1  0.25961875  0.28677726  0.55247923  1  0.09751  0.000248  0.120522  0.122779  2.4e-05  0.971159  0.0
H  H41  1  0.71322570  0.97284416  0.55247508  1  0.065266  0.000251  0.120529  0.122781  2.4e-05  0.971116  0.0
H  H42  1  0.02715808  0.74037936  0.55247719  1  0.098802  0.000249  0.1205  0.122758  2.4e-05  0.971199  0.0
H  H43  1  0.97284502  0.71322169  0.94752248  1  0.065212  0.000252  0.120529  0.122772  2.4e-05  0.971153  0.0
H  H44  1  0.74037816  0.02715447  0.94752387  1  0.09888  0.000249  0.120513  0.122735  2.4e-05  0.971171  0.0
H  H45  1  0.28677926  0.25962264  0.94752322  1  0.097552  0.000248  0.120505  0.122744  2.4e-05  0.971204  0.0
H  H46  1  0.68714959  0.60553816  0.70330610  1  0.087723  0.001914  0.121827  0.127296  0.000966  0.96414  0.001
H  H47  1  0.39446009  0.08161043  0.70330613  1  0.096901  0.001892  0.121817  0.127279  0.000966  0.964175  0.001
H  H48  1  0.91838952  0.31285208  0.70330677  1  0.093341  0.001909  0.121819  0.127281  0.000966  0.964162  0.001
H  H49  1  0.08161445  0.39446512  0.79669153  1  0.096769  0.001892  0.121803  0.127262  0.000966  0.964188  0.001
H  H50  1  0.31284810  0.91838922  0.79669562  1  0.093327  0.001909  0.121804  0.127276  0.000966  0.964169  0.001
H  H51  1  0.60553581  0.68714748  0.79669080  1  0.087325  0.001915  0.121787  0.127243  0.000966  0.96422  0.001
H  H52  1  0.31285010  0.39445827  0.29669548  1  0.087782  0.001914  0.121829  0.127321  0.000966  0.964127  0.001
H  H53  1  0.60553777  0.91838933  0.29669271  1  0.096904  0.001892  0.121813  0.127278  0.000966  0.964182  0.001
H  H54  1  0.08160995  0.68714756  0.29669207  1  0.093318  0.001909  0.121805  0.127259  0.000966  0.964166  0.001
H  H55  1  0.91838694  0.60553559  0.20330663  1  0.096809  0.001893  0.121822  0.127278  0.000966  0.964203  0.001
H  H56  1  0.68715168  0.08161160  0.20330870  1  0.093269  0.001909  0.121797  0.127269  0.000966  0.964196  0.001
H  H57  1  0.39446366  0.31285216  0.20330804  1  0.087354  0.001915  0.121807  0.127258  0.000966  0.964205  0.001
H  H58  1  0.74003699  0.53800417  0.63116086  1  0.132343  0.000351  0.125116  0.134394  0.000172  0.995112  0.0
H  H59  1  0.46199873  0.20203131  0.63116088  1  0.131175  0.000355  0.125145  0.134455  0.000172  0.995099  0.0
H  H60  1  0.79796628  0.25996541  0.63116154  1  0.129321  0.000347  0.125122  0.134399  0.000172  0.995132  0.0
H  H61  1  0.20203286  0.46199873  0.86883608  1  0.130971  0.000356  0.125131  0.134386  0.000172  0.995138  0.0
H  H62  1  0.25996483  0.79796851  0.86884018  1  0.12932  0.000348  0.125123  0.134424  0.000172  0.995128  0.0
H  H63  1  0.53800311  0.74003360  0.86883742  1  0.132326  0.000352  0.125141  0.134434  0.000173  0.995119  0.0
H  H64  1  0.25996451  0.46199493  0.36884004  1  0.132388  0.000351  0.125149  0.134461  0.000172  0.99509  0.0
H  H65  1  0.53800116  0.79796790  0.36883864  1  0.131002  0.000356  0.125135  0.134433  0.000172  0.995114  0.0
H  H66  1  0.20203224  0.74003070  0.36883798  1  0.129366  0.000348  0.125145  0.134382  0.000172  0.995144  0.0
H  H67  1  0.79796704  0.53800048  0.13116208  1  0.130981  0.000356  0.125138  0.134404  0.000172  0.995122  0.0
H  H68  1  0.74003860  0.20203166  0.13116277  1  0.129298  0.000348  0.125097  0.134375  0.000173  0.995174  0.0
H  H69  1  0.46199827  0.25996711  0.13116211  1  0.132319  0.000352  0.125119  0.134382  0.000172  0.995145  0.0
C  C70  1  0.73583493  0.55318374  0.43310906  1  1.575506  0.002277  0.206682  0.623852  0.001278  4.173545  0.002
C  C71  1  0.44680960  0.18265287  0.43310566  1  1.596239  0.002256  0.206591  0.623737  0.001278  4.173847  0.002
C  C72  1  0.81733876  0.26414726  0.43310563  1  1.588381  0.002274  0.206688  0.623871  0.001278  4.17369  0.002
C  C73  1  0.18265085  0.44681028  0.06688827  1  1.596165  0.002256  0.206595  0.623787  0.001277  4.173676  0.002
C  C74  1  0.26415328  0.81734495  0.06689169  1  1.588249  0.002273  0.206597  0.623638  0.001278  4.173758  0.002
C  C75  1  0.55319499  0.73585069  0.06689372  1  1.575112  0.002276  0.206712  0.623923  0.001277  4.17367  0.002
C  C76  1  0.26416304  0.44681441  0.56689252  1  1.575807  0.002277  0.20669  0.623929  0.001278  4.173547  0.002
C  C77  1  0.55319029  0.81734635  0.56689250  1  1.595958  0.002257  0.206608  0.623735  0.001278  4.173959  0.002
C  C78  1  0.18266059  0.73585400  0.56689390  1  1.588301  0.002273  0.206671  0.623753  0.001278  4.173786  0.002
C  C79  1  0.81734849  0.55319097  0.93310988  1  1.596166  0.002256  0.20662  0.623789  0.001277  4.173647  0.002
C  C80  1  0.73584598  0.18265191  0.93310989  1  1.588262  0.002273  0.206608  0.623682  0.001277  4.173905  0.002
C  C81  1  0.44680384  0.26414660  0.93310580  1  1.575184  0.002276  0.206642  0.623747  0.001277  4.173846  0.002
C  C82  1  0.74558799  0.65103707  0.49350612  1  0.255249  0.000452  -0.067892  -0.180282  0.000255  3.896603  -0.002
C  C83  1  0.34896123  0.09454876  0.49350684  1  0.285458  0.000421  -0.067883  -0.180292  0.000255  3.896638  -0.002
C  C84  1  0.90544878  0.25441016  0.49350748  1  0.249402  0.000433  -0.067917  -0.180326  0.000255  3.896726  -0.002
C  C85  1  0.09454956  0.34896211  0.00649190  1  0.285435  0.000421  -0.06783  -0.180211  0.000255  3.89673  -0.002
C  C86  1  0.25441217  0.90545009  0.00649462  1  0.249421  0.000434  -0.067888  -0.180173  0.000255  3.896599  -0.002
C  C87  1  0.65103597  0.74558623  0.00649185  1  0.255216  0.000451  -0.067885  -0.180303  0.000254  3.896734  -0.002
C  C88  1  0.25441115  0.34896140  0.50649477  1  0.255285  0.000452  -0.067909  -0.180333  0.000255  3.896667  -0.002
C  C89  1  0.65103984  0.90545077  0.50649131  1  0.285667  0.000421  -0.067883  -0.180285  0.000255  3.896614  -0.002
C  C90  1  0.09455080  0.74558787  0.50649204  1  0.24939  0.000433  -0.06787  -0.180281  0.000255  3.896779  -0.002
C  C91  1  0.90544959  0.65103636  0.99350557  1  0.285418  0.000421  -0.067903  -0.180315  0.000255  3.896733  -0.002
C  C92  1  0.74558848  0.09454987  0.99350764  1  0.249235  0.000434  -0.067872  -0.180198  0.000255  3.896762  -0.002
C  C93  1  0.34896318  0.25441224  0.99350767  1  0.255212  0.000451  -0.067839  -0.180213  0.000254  3.896794  -0.002
C  C94  1  0.66678410  0.55234371  0.64119531  1  0.232215  0.001464  -0.065173  -0.203235  0.000903  3.860746  -0.001
C  C95  1  0.44765615  0.11443766  0.64119533  1  0.218531  0.001478  -0.065209  -0.203312  0.000903  3.860726  -0.001
C  C96  1  0.88556101  0.33321877  0.64119598  1  0.226694  0.001463  -0.065229  -0.203284  0.000902  3.860677  -0.001
C  C97  1  0.11444073  0.44765765  0.85880370  1  0.219094  0.001477  -0.065208  -0.203269  0.000902  3.860756  -0.001
C  C98  1  0.33321551  0.88556144  0.85880573  1  0.227028  0.001462  -0.065201  -0.203366  0.000901  3.860762  -0.001
C  C99  1  0.55234296  0.66678186  0.85880229  1  0.232368  0.001461  -0.065237  -0.203391  0.000901  3.860823  -0.001
C  C100  1  0.33321784  0.44765496  0.35880559  1  0.231922  0.001464  -0.065175  -0.203374  0.000903  3.860731  -0.001
C  C101  1  0.55234257  0.88556124  0.35880352  1  0.218798  0.001478  -0.065231  -0.203356  0.000903  3.860801  -0.001
C  C102  1  0.11443696  0.66677938  0.35880286  1  0.226716  0.001464  -0.065234  -0.203242  0.000902  3.860731  -0.001
C  C103  1  0.88556066  0.55234306  0.14119514  1  0.218975  0.001478  -0.065226  -0.203277  0.000902  3.860708  -0.001
C  C104  1  0.66678619  0.11444044  0.14119722  1  0.226836  0.001462  -0.065203  -0.203324  0.000902  3.860811  -0.001
C  C105  1  0.44765725  0.33321853  0.14119586  1  0.232223  0.001461  -0.065229  -0.203298  0.000901  3.860736  -0.001
C  C106  1  0.56081080  0.43542253  0.65992171  1  1.59768  0.001076  0.232488  0.661461  0.000897  4.101743  0.001
C  C107  1  0.56457781  0.12538537  0.65992239  1  1.603463  0.00108  0.232414  0.661289  0.000897  4.101836  0.001
C  C108  1  0.87461296  0.43919342  0.65992374  1  1.60376  0.001096  0.232397  0.661387  0.000898  4.101685  0.001
C  C109  1  0.12539410  0.56458414  0.84007319  1  1.602887  0.001081  0.232437  0.661361  0.000897  4.101837  0.001
C  C110  1  0.43918609  0.87460846  0.84007385  1  1.603932  0.001097  0.232465  0.661462  0.000896  4.101461  0.001
C  C111  1  0.43541525  0.56081063  0.84007317  1  1.59802  0.001078  0.232362  0.661286  0.000898  4.101887  0.001
C  C112  1  0.43919039  0.56457539  0.34007850  1  1.597788  0.001076  0.232452  0.661519  0.000897  4.1017  0.001
C  C113  1  0.43542016  0.87461278  0.34007713  1  1.603481  0.001081  0.232358  0.661296  0.000898  4.101825  0.001
C  C114  1  0.12538501  0.56080473  0.34007442  1  1.603461  0.001095  0.232395  0.661359  0.000898  4.10165  0.001
C  C115  1  0.87460771  0.43541614  0.15992633  1  1.602892  0.001081  0.232411  0.661382  0.000898  4.101721  0.001
C  C116  1  0.56081432  0.12539471  0.15992704  1  1.603924  0.001098  0.232435  0.661381  0.000898  4.101862  0.001
C  C117  1  0.56458410  0.43919063  0.15992636  1  1.59801  0.001078  0.232335  0.661254  0.000898  4.101932  0.001
N  N118  1  0.65205350  0.61085728  0.56100197  1  -1.099781  0.09557  -0.497052  -0.27879  0.061257  3.55539  0.079
N  N119  1  0.38914376  0.04119503  0.56100199  1  -1.099535  0.09557  -0.497044  -0.278695  0.061254  3.55538  0.079
N  N120  1  0.95880445  0.34794741  0.56100194  1  -1.106462  0.095623  -0.497029  -0.278709  0.061259  3.555421  0.079
N  N121  1  0.04119585  0.38914300  0.93899636  1  -1.099722  0.095574  -0.497055  -0.278684  0.061256  3.555331  0.079
N  N122  1  0.34794619  0.95880434  0.93899907  1  -1.106466  0.095615  -0.497054  -0.278774  0.061254  3.555453  0.079
N  N123  1  0.61085842  0.65205231  0.93899494  1  -1.09986  0.095567  -0.497024  -0.278583  0.061256  3.555195  0.079
N  N124  1  0.34794639  0.38914194  0.43900030  1  -1.099549  0.095571  -0.497044  -0.278729  0.061257  3.555249  0.079
N  N125  1  0.61085775  0.95880407  0.43899685  1  -1.099717  0.095577  -0.497034  -0.278617  0.061258  3.555386  0.079
N  N126  1  0.04119469  0.65205106  0.43899758  1  -1.106495  0.095614  -0.497015  -0.278691  0.061254  3.555419  0.079
N  N127  1  0.95880404  0.61085622  0.06100180  1  -1.099518  0.095572  -0.497048  -0.278705  0.061255  3.555389  0.079
N  N128  1  0.65205489  0.04119519  0.06100456  1  -1.106445  0.095619  -0.496971  -0.278648  0.061257  3.555275  0.079
N  N129  1  0.38914147  0.34794691  0.06100321  1  -1.099708  0.095569  -0.497045  -0.278675  0.061256  3.555234  0.079
O  O130  1  0.64391638  0.45496700  0.44075785  1  -1.174923  -0.001025  -0.398053  -0.67083  -0.001504  2.335773  0.0
O  O131  1  0.54503315  0.18894898  0.44075443  1  -1.180941  -0.001015  -0.398043  -0.670796  -0.001504  2.335565  0.0
O  O132  1  0.81104367  0.35608038  0.44076126  1  -1.180807  -0.001015  -0.398056  -0.670902  -0.001504  2.335285  0.0
O  O133  1  0.18894945  0.54503288  0.05924086  1  -1.180968  -0.001015  -0.398019  -0.670831  -0.001504  2.335653  0.0
O  O134  1  0.35608351  0.81104525  0.05924153  1  -1.180801  -0.001015  -0.398018  -0.670798  -0.001504  2.335424  0.0
O  O135  1  0.45495854  0.64391153  0.05923947  1  -1.174242  -0.001024  -0.398077  -0.670975  -0.001504  2.335092  0.0
O  O136  1  0.35608245  0.54503029  0.55924648  1  -1.175175  -0.001025  -0.398069  -0.67083  -0.001505  2.335677  0.0
O  O137  1  0.45496898  0.81105248  0.55924099  1  -1.180946  -0.001014  -0.398015  -0.670799  -0.001504  2.335604  0.0
O  O138  1  0.18895367  0.64391542  0.55924032  1  -1.180716  -0.001014  -0.398048  -0.670838  -0.001504  2.335185  0.0
O  O139  1  0.81104927  0.45496602  0.94075661  1  -1.18094  -0.001015  -0.398031  -0.670819  -0.001504  2.335567  0.0
O  O140  1  0.64391426  0.18895012  0.94076073  1  -1.180771  -0.001014  -0.398079  -0.670871  -0.001504  2.335439  0.0
O  O141  1  0.54504060  0.35608694  0.94076005  1  -1.174315  -0.001024  -0.39808  -0.670933  -0.001504  2.335148  0.0
O  O142  1  0.81584389  0.57239314  0.37760181  1  -1.197722  0.001256  -0.325063  -0.59751  0.000536  2.166907  0.001
O  O143  1  0.42760503  0.24344671  0.37760526  1  -1.198326  0.001256  -0.324978  -0.597366  0.000536  2.167286  0.001
O  O144  1  0.75655043  0.18415488  0.37760866  1  -1.201776  0.00126  -0.325  -0.597377  0.000535  2.167555  0.001
O  O145  1  0.24345099  0.42760683  0.12239551  1  -1.198287  0.001255  -0.325041  -0.59747  0.000535  2.166942  0.001
O  O146  1  0.18415878  0.75655275  0.12239689  1  -1.201633  0.00126  -0.325006  -0.59734  0.000535  2.167326  0.001
O  O147  1  0.57239207  0.81583613  0.12239343  1  -1.197997  0.001254  -0.325018  -0.597397  0.000535  2.167598  0.001
O  O148  1  0.18415365  0.42760545  0.62239703  1  -1.19777  0.001256  -0.325039  -0.597513  0.000536  2.166978  0.001
O  O149  1  0.57239475  0.75655411  0.62239426  1  -1.198277  0.001256  -0.325004  -0.597389  0.000535  2.167428  0.001
O  O150  1  0.24344915  0.81584316  0.62239155  1  -1.201734  0.00126  -0.324987  -0.597323  0.000535  2.167648  0.001
O  O151  1  0.75655114  0.57239462  0.87760196  1  -1.198321  0.001255  -0.325031  -0.597441  0.000535  2.167088  0.001
O  O152  1  0.81584037  0.24344572  0.87760401  1  -1.201617  0.001259  -0.324978  -0.597349  0.000535  2.167326  0.001
O  O153  1  0.42760794  0.18416148  0.87760609  1  -1.198025  0.001254  -0.324988  -0.597328  0.000535  2.167692  0.001
O  O154  1  0.47529653  0.39752950  0.60500832  1  -1.132834  0.086093  -0.316296  -0.514654  0.054539  2.281047  0.078
O  O155  1  0.60247016  0.07776397  0.60500488  1  -1.133549  0.086102  -0.316308  -0.514617  0.054541  2.281118  0.078
O  O156  1  0.92224165  0.52470857  0.60500623  1  -1.132444  0.086075  -0.316338  -0.514703  0.054539  2.280939  0.078
O  O157  1  0.07776203  0.60246925  0.89499276  1  -1.133485  0.086107  -0.316388  -0.514745  0.054545  2.280916  0.078
O  O158  1  0.52470955  0.92224375  0.89499409  1  -1.132529  0.086093  -0.316358  -0.514722  0.05455  2.280575  0.078
O  O159  1  0.39753307  0.47528995  0.89499479  1  -1.132854  0.086098  -0.316404  -0.514772  0.054543  2.280706  0.078
O  O160  1  0.52470423  0.60246886  0.39499395  1  -1.132881  0.086096  -0.316342  -0.514683  0.054542  2.281025  0.078
O  O161  1  0.39753292  0.92224102  0.39499259  1  -1.133565  0.086098  -0.316327  -0.514643  0.054539  2.280975  0.078
O  O162  1  0.07775675  0.47528915  0.39499330  1  -1.132144  0.086078  -0.316363  -0.514731  0.05454  2.280908  0.078
O  O163  1  0.92223787  0.39752996  0.10500677  1  -1.133512  0.086104  -0.316316  -0.514672  0.054542  2.280883  0.078
O  O164  1  0.47529376  0.07775802  0.10500954  1  -1.132564  0.086077  -0.316321  -0.514698  0.054541  2.280806  0.078
O  O165  1  0.60246683  0.52470927  0.10500405  1  -1.132872  0.086096  -0.316355  -0.514699  0.054541  2.280809  0.078
O  O166  1  0.56169033  0.37893136  0.72883469  1  -1.214982  0.01334  -0.409564  -0.670451  0.008238  2.310443  0.011
O  O167  1  0.62106034  0.18274387  0.72883674  1  -1.216105  0.013335  -0.409483  -0.670307  0.008236  2.310548  0.011
O  O168  1  0.81725168  0.43831481  0.72883399  1  -1.219169  0.013327  -0.409418  -0.670317  0.008234  2.310652  0.011
O  O169  1  0.18274834  0.62106499  0.77116637  1  -1.21581  0.01333  -0.409401  -0.670225  0.008233  2.310754  0.011
O  O170  1  0.43831248  0.81725563  0.77116703  1  -1.219472  0.013321  -0.409419  -0.670281  0.008231  2.310762  0.011
O  O171  1  0.37893324  0.56168552  0.77117320  1  -1.215231  0.013325  -0.409341  -0.670133  0.008229  2.311036  0.011
O  O172  1  0.43831282  0.62106162  0.27116278  1  -1.214942  0.013339  -0.409495  -0.670469  0.008237  2.310447  0.011
O  O173  1  0.37893519  0.81724925  0.27116689  1  -1.216169  0.013334  -0.40939  -0.670266  0.008235  2.310618  0.011
O  O174  1  0.18274362  0.56168154  0.27116348  1  -1.219204  0.013326  -0.409396  -0.670268  0.008234  2.310584  0.011
O  O175  1  0.81725498  0.37893678  0.22883521  1  -1.215777  0.01333  -0.409419  -0.670294  0.008233  2.31072  0.011
O  O176  1  0.56169080  0.18275214  0.22883181  1  -1.219196  0.013322  -0.409441  -0.670268  0.008231  2.310916  0.011
O  O177  1  0.62106568  0.43831617  0.22882701  1  -1.215182  0.013325  -0.409353  -0.670192  0.008229  2.310961  0.011
