# generated using pymatgen
data_NiH5C5O4
_symmetry_space_group_name_H-M   'P 1'
_cell_length_a   6.75430965
_cell_length_b   15.10404313
_cell_length_c   15.10477187
_cell_angle_alpha   117.83080632
_cell_angle_beta   98.57185022
_cell_angle_gamma   98.57342288
_symmetry_Int_Tables_number   1
_chemical_formula_structural   NiH5C5O4
_chemical_formula_sum   'Ni6 H30 C30 O24'
_cell_volume   1304.67810989
_cell_formula_units_Z   6
loop_
 _symmetry_equiv_pos_site_id
 _symmetry_equiv_pos_as_xyz
  1  'x, y, z'
loop_
 _atom_site_type_symbol
 _atom_site_label
 _atom_site_symmetry_multiplicity
 _atom_site_fract_x
 _atom_site_fract_y
 _atom_site_fract_z
 _atom_site_occupancy
 _atom_site_pbe_bader_charge
 _atom_site_pbe_bader_spin_density
 _atom_site_pbe_cm5_charge
 _atom_site_pbe_ddec_charge
 _atom_site_pbe_ddec_spin_density
 _atom_site_pbe_ddec_sum_bond_order
 _atom_site_pbe_magmom
Ni  Ni0  1  0.19701636  0.73303789  0.32075779  1  1.222781  1.571075  0.631439  0.90658  1.760533  2.416493  1.559
Ni  Ni1  1  0.87616892  0.67925107  0.41229548  1  1.220682  1.570586  0.629692  0.9036  1.759461  2.420683  1.558
Ni  Ni2  1  0.46394720  0.58764610  0.26693883  1  1.224235  1.570649  0.630659  0.90577  1.759819  2.418847  1.558
Ni  Ni3  1  0.80298282  0.26695785  0.67923673  1  1.222693  1.571095  0.63143  0.906542  1.760546  2.41649  1.559
Ni  Ni4  1  0.12382894  0.32075394  0.58770858  1  1.220735  1.570581  0.629774  0.903689  1.759453  2.420633  1.558
Ni  Ni5  1  0.53604497  0.41235350  0.73306432  1  1.224275  1.570653  0.63065  0.905685  1.759825  2.418834  1.558
H  H6  1  0.18707316  0.53996187  0.55962386  1  0.117432  0.000727  0.107186  0.133253  0.000368  1.007618  0.0
H  H7  1  0.62749405  0.44022554  0.98031667  1  0.10777  0.000753  0.107995  0.133917  0.00038  1.007446  0.0
H  H8  1  0.64724215  0.01982220  0.45999176  1  0.101173  0.000751  0.107728  0.133993  0.000368  1.006896  0.0
H  H9  1  0.81292882  0.46004237  0.44038210  1  0.127988  0.000716  0.107219  0.133242  0.000368  1.007602  0.0
H  H10  1  0.37249308  0.55976711  0.01967230  1  0.107719  0.000753  0.107973  0.133943  0.00038  1.007485  0.0
H  H11  1  0.35274136  0.98017817  0.54000125  1  0.101105  0.000751  0.10767  0.133859  0.000368  1.006954  0.0
H  H12  1  0.12824850  0.75542457  0.17113546  1  0.600238  -0.000179  0.322926  0.349166  -0.000199  0.903954  0.0
H  H13  1  0.95626795  0.82904073  0.58415047  1  0.615994  -0.000175  0.32398  0.351575  -0.000198  0.903409  0.0
H  H14  1  0.37226080  0.41566278  0.24461158  1  0.60946  -0.000181  0.32433  0.351709  -0.000204  0.901692  0.0
H  H15  1  0.87176385  0.24457348  0.82886763  1  0.600268  -0.000179  0.322911  0.349168  -0.000199  0.903879  0.0
H  H16  1  0.04374368  0.17096196  0.41584679  1  0.616061  -0.000175  0.323981  0.351558  -0.000198  0.903413  0.0
H  H17  1  0.62773763  0.58433141  0.75538746  1  0.609358  -0.000182  0.32431  0.351692  -0.000204  0.901688  0.0
H  H18  1  0.07171205  0.94815978  0.32084843  1  0.076946  0.000142  0.09963  0.105191  -9e-06  1.023678  0.0
H  H19  1  0.75096261  0.67941755  0.62744682  1  0.082628  0.00014  0.09945  0.105004  -1.1e-05  1.024435  0.0
H  H20  1  0.12374268  0.37252203  0.05169968  1  0.065514  0.000142  0.100261  0.106534  -1e-05  1.023548  0.0
H  H21  1  0.92828945  0.05183750  0.67915491  1  0.076884  0.000142  0.099629  0.105181  -9e-06  1.023686  0.0
H  H22  1  0.24904427  0.32059056  0.37255663  1  0.082565  0.00014  0.099469  0.105038  -1.1e-05  1.024411  0.0
H  H23  1  0.87626592  0.62747757  0.94829792  1  0.065464  0.000142  0.100264  0.106535  -1e-05  1.023595  0.0
H  H24  1  0.08259732  0.91420802  0.19128005  1  0.018208  0.004357  0.090796  0.07875  0.001968  0.993855  0.002
H  H25  1  0.89092112  0.80915674  0.72292971  1  0.017752  0.004342  0.091081  0.079042  0.001961  0.994159  0.002
H  H26  1  0.16823707  0.27698267  0.08583186  1  0.017193  0.004367  0.090898  0.079628  0.001965  0.99395  0.002
H  H27  1  0.91741989  0.08578772  0.80872624  1  0.018066  0.004358  0.090805  0.078725  0.001969  0.993575  0.002
H  H28  1  0.10908652  0.19085291  0.27707386  1  0.017872  0.00434  0.091148  0.079153  0.00196  0.994176  0.002
H  H29  1  0.83176250  0.72301384  0.91416371  1  0.017168  0.004369  0.090885  0.079609  0.001966  0.993831  0.002
H  H30  1  0.30890742  0.93102471  0.28401260  1  0.060921  0.000374  0.099493  0.10215  -2.6e-05  0.997987  0.0
H  H31  1  0.02494817  0.71655155  0.64718425  1  0.072694  0.000383  0.099426  0.102396  -2.5e-05  0.99705  0.0
H  H32  1  0.37801616  0.35279529  0.06907884  1  0.070914  0.000378  0.099095  0.102558  -2.5e-05  0.998754  0.0
H  H33  1  0.69110689  0.06897721  0.71599639  1  0.060928  0.000374  0.099477  0.102085  -2.6e-05  0.998039  0.0
H  H34  1  0.97505531  0.28345578  0.35281663  1  0.072624  0.000383  0.099447  0.102429  -2.5e-05  0.997025  0.0
H  H35  1  0.62199618  0.64720276  0.93092226  1  0.070997  0.000378  0.099119  0.10257  -2.5e-05  0.998851  0.0
C  C36  1  0.32628687  0.52335044  0.53392599  1  -0.023236  0.018214  -0.105677  -0.211955  0.010705  3.976884  0.012
C  C37  1  0.79239861  0.46598912  0.98939228  1  -0.00353  0.018076  -0.106532  -0.211091  0.010638  3.975771  0.012
C  C38  1  0.80302720  0.01064913  0.47658582  1  -0.036878  0.018359  -0.105208  -0.207819  0.01073  3.975586  0.012
C  C39  1  0.67371031  0.47665921  0.46608020  1  -0.033269  0.018206  -0.105667  -0.21186  0.010695  3.976973  0.012
C  C40  1  0.20759905  0.53400352  0.01060467  1  -0.00367  0.018081  -0.106574  -0.211257  0.010641  3.975949  0.012
C  C41  1  0.19694814  0.98935279  0.52341268  1  -0.036513  0.018345  -0.105061  -0.207584  0.010722  3.975697  0.012
C  C42  1  0.25276755  0.61149522  0.43510039  1  1.532335  0.003014  0.226847  0.625566  0.001999  4.082518  0.001
C  C43  1  0.81755756  0.56487720  0.17638441  1  1.557578  0.00284  0.224957  0.623877  0.001811  4.080217  0.001
C  C44  1  0.64112514  0.82362506  0.38845838  1  1.53258  0.003027  0.226266  0.623859  0.001979  4.083757  0.001
C  C45  1  0.74723413  0.38851443  0.56490609  1  1.532013  0.003019  0.226916  0.625907  0.001999  4.082545  0.001
C  C46  1  0.18243930  0.43511390  0.82360911  1  1.557726  0.002836  0.225055  0.623925  0.001808  4.080152  0.001
C  C47  1  0.35886554  0.17637763  0.61154016  1  1.532687  0.003027  0.226259  0.623848  0.00198  4.084222  0.001
C  C48  1  0.38354780  0.55367662  0.46488559  1  -0.059745  0.020531  -0.036162  -0.155762  0.011622  3.974977  0.014
C  C49  1  0.91868289  0.53499908  0.08882132  1  -0.041386  0.020397  -0.034923  -0.15454  0.011555  3.973472  0.014
C  C50  1  0.82973691  0.91122187  0.44621330  1  -0.024924  0.020329  -0.035964  -0.156654  0.011546  3.975795  0.014
C  C51  1  0.61647595  0.44633226  0.53512264  1  -0.059858  0.020529  -0.036165  -0.155828  0.011621  3.975033  0.014
C  C52  1  0.08131062  0.46499125  0.91117626  1  -0.04136  0.0204  -0.03485  -0.154386  0.011557  3.973429  0.014
C  C53  1  0.17025980  0.08878083  0.55379225  1  -0.025344  0.020326  -0.035945  -0.156567  0.011544  3.975885  0.014
C  C54  1  0.43611782  0.47038747  0.57096487  1  0.550715  0.009131  0.063135  0.278907  0.006495  4.126986  0.005
C  C55  1  0.86516952  0.42908076  0.89939743  1  0.527305  0.009065  0.063322  0.276818  0.00645  4.129436  0.005
C  C56  1  0.96592943  0.10062289  0.52971122  1  0.548269  0.008971  0.06195  0.273813  0.00643  4.130642  0.005
C  C57  1  0.56387084  0.52962604  0.42904654  1  0.550563  0.00913  0.063068  0.27901  0.006494  4.127005  0.005
C  C58  1  0.13483296  0.57090956  0.10059808  1  0.527224  0.009064  0.063364  0.27696  0.006449  4.129517  0.005
C  C59  1  0.03404665  0.89937748  0.47029058  1  0.547582  0.008973  0.062034  0.274007  0.006429  4.13037  0.005
C  C60  1  0.13954872  0.90411168  0.25735134  1  0.386395  0.001521  -0.145544  -0.11541  0.000878  3.891861  0.0
C  C61  1  0.88197962  0.74301761  0.64684603  1  0.375351  0.001524  -0.145698  -0.115933  0.000887  3.892822  0.0
C  C62  1  0.23540700  0.35311490  0.09585935  1  0.38305  0.001548  -0.145803  -0.118013  0.000887  3.894547  0.0
C  C63  1  0.86046096  0.09588405  0.74264783  1  0.386498  0.00152  -0.14556  -0.115353  0.000877  3.891641  0.0
C  C64  1  0.11801745  0.25698586  0.35315527  1  0.375329  0.001524  -0.145822  -0.116203  0.000887  3.892928  0.0
C  C65  1  0.76459176  0.64687697  0.90413730  1  0.383143  0.001546  -0.145823  -0.11803  0.000886  3.894631  0.0
O  O66  1  0.31118141  0.64684309  0.37780200  1  -1.134828  0.119177  -0.309995  -0.559224  0.066228  2.62119  0.11
O  O67  1  0.93326988  0.62217634  0.26905240  1  -1.137306  0.118942  -0.308129  -0.557968  0.066385  2.619683  0.11
O  O68  1  0.66404448  0.73094159  0.35319430  1  -1.132064  0.11907  -0.310523  -0.558814  0.066336  2.622898  0.11
O  O69  1  0.68882273  0.35315960  0.62219411  1  -1.134292  0.119167  -0.310104  -0.559469  0.066225  2.621153  0.11
O  O70  1  0.06673111  0.37781707  0.73093916  1  -1.137467  0.118949  -0.308125  -0.55797  0.066389  2.619903  0.11
O  O71  1  0.33593714  0.26905492  0.64680341  1  -1.132111  0.119051  -0.310507  -0.55878  0.066325  2.623006  0.11
O  O72  1  0.09188843  0.62569433  0.46844682  1  -1.133602  0.073407  -0.297988  -0.526336  0.040141  2.337771  0.067
O  O73  1  0.62327611  0.53164641  0.15719102  1  -1.157599  0.073362  -0.298087  -0.526237  0.040158  2.336307  0.066
O  O74  1  0.46605879  0.84279650  0.37432899  1  -1.13952  0.073532  -0.297949  -0.525671  0.040257  2.337987  0.067
O  O75  1  0.90811523  0.37431919  0.53157021  1  -1.133871  0.073415  -0.297939  -0.526398  0.040143  2.337869  0.067
O  O76  1  0.37672083  0.46834778  0.84280792  1  -1.157678  0.073366  -0.298156  -0.526286  0.040161  2.336309  0.066
O  O77  1  0.53392873  0.15720001  0.62565586  1  -1.139521  0.073538  -0.297933  -0.525649  0.040259  2.338075  0.067
O  O78  1  0.36384346  0.44735223  0.63805310  1  -1.129831  0.129405  -0.3576  -0.595605  0.072242  2.546506  0.118
O  O79  1  0.72576158  0.36201408  0.80924715  1  -1.132031  0.129614  -0.358401  -0.59583  0.072297  2.547471  0.118
O  O80  1  0.91679645  0.19077036  0.55277722  1  -1.128996  0.129412  -0.357342  -0.59496  0.072292  2.548453  0.118
O  O81  1  0.63616267  0.55265433  0.36195422  1  -1.129763  0.129428  -0.357642  -0.595799  0.072254  2.546543  0.118
O  O82  1  0.27423113  0.63797469  0.19074502  1  -1.131893  0.12961  -0.35841  -0.595902  0.072296  2.547564  0.118
O  O83  1  0.08319389  0.80923466  0.44722105  1  -1.128832  0.129393  -0.35735  -0.595131  0.072283  2.548122  0.118
O  O84  1  0.07117827  0.79675732  0.22847493  1  -1.085922  0.049674  -0.387734  -0.413774  0.027624  2.401161  0.045
O  O85  1  0.84211605  0.77159186  0.56817477  1  -1.106093  0.049625  -0.38852  -0.415915  0.027625  2.402449  0.045
O  O86  1  0.27424074  0.43171538  0.20316980  1  -1.088375  0.049619  -0.388909  -0.416269  0.027695  2.401469  0.045
O  O87  1  0.92883480  0.20323919  0.77152615  1  -1.085809  0.049663  -0.387694  -0.413752  0.027623  2.401082  0.045
O  O88  1  0.15788590  0.22841238  0.43182589  1  -1.106102  0.049614  -0.388507  -0.415819  0.02762  2.402435  0.045
O  O89  1  0.72575997  0.56828035  0.79683012  1  -1.088422  0.049625  -0.388877  -0.416211  0.027698  2.401455  0.045
