# generated using pymatgen
data_Al2H20C27O14
_symmetry_space_group_name_H-M   'P 1'
_cell_length_a   6.64324969
_cell_length_b   17.27116261
_cell_length_c   19.60534705
_cell_angle_alpha   107.65522944
_cell_angle_beta   90.00028091
_cell_angle_gamma   90.00041346
_symmetry_Int_Tables_number   1
_chemical_formula_structural   Al2H20C27O14
_chemical_formula_sum   'Al4 H40 C54 O28'
_cell_volume   2143.49978917
_cell_formula_units_Z   2
loop_
 _symmetry_equiv_pos_site_id
 _symmetry_equiv_pos_as_xyz
  1  'x, y, z'
loop_
 _atom_site_type_symbol
 _atom_site_label
 _atom_site_symmetry_multiplicity
 _atom_site_fract_x
 _atom_site_fract_y
 _atom_site_fract_z
 _atom_site_occupancy
 _atom_site_pbe_bader_charge
 _atom_site_pbe_bader_spin_density
 _atom_site_pbe_cm5_charge
 _atom_site_pbe_ddec_charge
 _atom_site_pbe_ddec_spin_density
 _atom_site_pbe_ddec_sum_bond_order
 _atom_site_pbe_magmom
Al  Al0  1  0.89151012  0.50285555  0.50199910  1  2.50178  0  0.39996  1.642165  0  2.583841  0
Al  Al1  1  0.39150624  0.49715101  0.49800492  1  2.501806  0  0.399924  1.642221  0  2.584017  0
Al  Al2  1  0.38790054  0.00153020  0.00086198  1  2.500938  0  0.398066  1.644833  0  2.580715  0
Al  Al3  1  0.88789194  0.99847269  0.99914148  1  2.500862  0  0.398079  1.644988  0  2.580554  0
H  H4  1  0.38120511  0.33248063  0.29285173  1  0.058285  0  0.109949  0.118498  0  1.000165  0
H  H5  1  0.88120086  0.66752307  0.70715760  1  0.058357  0  0.109924  0.118559  0  1.000153  0
H  H6  1  0.43546536  0.32723964  0.60935957  1  0.084733  0  0.105856  0.116061  0  1.005373  0
H  H7  1  0.93547935  0.67274911  0.39063431  1  0.084707  0  0.105953  0.116179  0  1.005375  0
H  H8  1  0.58471355  0.21678769  0.64982011  1  0.029447  0  0.100969  0.111911  0  0.995057  0
H  H9  1  0.08472960  0.78319239  0.35017074  1  0.029665  0  0.100966  0.111971  0  0.995023  0
H  H10  1  0.40088601  0.08754347  0.82530251  1  0.07786  0  0.107052  0.113026  0  1.014607  0
H  H11  1  0.90090279  0.91245072  0.17469399  1  0.07796  0  0.107122  0.113082  0  1.014569  0
H  H12  1  0.67482138  0.37584098  0.77610969  1  0.073956  0  0.107622  0.128004  0  1.007452  0
H  H13  1  0.17480768  0.62415545  0.22388788  1  0.073829  0  0.107567  0.127876  0  1.007455  0
H  H14  1  0.56662019  0.22670680  0.23512147  1  0.595045  0  0.325216  0.35  0  0.913183  0
H  H15  1  0.06662381  0.77329834  0.76489565  1  0.595414  0  0.325093  0.349924  0  0.91309  0
H  H16  1  0.81046611  0.28527356  0.97078474  1  0.029969  0  0.095357  0.140211  0  0.99704  0
H  H17  1  0.68911897  0.19145830  0.93467192  1  0.04703  0  0.096821  0.136537  0  0.997771  0
H  H18  1  0.90027366  0.19872285  0.99216445  1  0.014704  0  0.093752  0.129107  0  1.019635  0
H  H19  1  0.31046090  0.71472067  0.02920726  1  0.0299  0  0.095333  0.140164  0  0.997149  0
H  H20  1  0.18911958  0.80853483  0.06532780  1  0.047076  0  0.096822  0.136491  0  0.997856  0
H  H21  1  0.40026575  0.80127617  0.00783261  1  0.014658  0  0.09373  0.129041  0  1.019672  0
H  H22  1  0.53360282  0.32776460  0.85589640  1  0.610259  0  0.337755  0.366452  0  0.871965  0
H  H23  1  0.03360121  0.67222861  0.14409760  1  0.61028  0  0.337754  0.36557  0  0.871795  0
H  H24  1  0.84909814  0.16837760  0.15534005  1  0.637677  0  0.322067  0.36302  0  0.916903  0
H  H25  1  0.34909828  0.83163033  0.84465801  1  0.638331  0  0.321967  0.362926  0  0.917001  0
H  H26  1  0.94170762  0.24656870  0.40214443  1  0.039859  0  0.095907  0.130358  0  0.985618  0
H  H27  1  0.81265300  0.26349545  0.32907242  1  0.048392  0  0.094169  0.126722  0  1.006645  0
H  H28  1  0.98696869  0.18202458  0.31293636  1  0.060195  0  0.096065  0.134997  0  1.003302  0
H  H29  1  0.44174000  0.75343718  0.59785384  1  0.039617  0  0.095875  0.130244  0  0.985661  0
H  H30  1  0.31267095  0.73651707  0.67092396  1  0.048653  0  0.094138  0.126679  0  1.006639  0
H  H31  1  0.48700541  0.81797953  0.68705987  1  0.059864  0  0.096049  0.134944  0  1.003388  0
H  H32  1  0.81764882  0.43828947  0.63394783  1  0.653767  0  0.316312  0.363089  0  0.950553  0
H  H33  1  0.31764916  0.56170920  0.36605383  1  0.653736  0  0.31634  0.363016  0  0.950606  0
H  H34  1  0.69240603  0.11912572  0.77776369  1  0.045033  0  0.091544  0.129248  0  1.016801  0
H  H35  1  0.56109394  0.04775739  0.70795147  1  0.0203  0  0.091095  0.125566  0  0.990162  0
H  H36  1  0.73669843  0.11545445  0.68758883  1  0.048287  0  0.093458  0.132012  0  0.991146  0
H  H37  1  0.19241063  0.88087148  0.22223606  1  0.045455  0  0.091553  0.129301  0  1.016804  0
H  H38  1  0.06109222  0.95223031  0.29205005  1  0.020604  0  0.091136  0.125636  0  0.9902  0
H  H39  1  0.23671041  0.88453747  0.31241046  1  0.047981  0  0.093464  0.132078  0  0.99102  0
H  H40  1  0.65074083  0.39573419  0.46349191  1  0.651193  0  0.354088  0.430008  0  0.85694  0
H  H41  1  0.15074462  0.60426985  0.53651633  1  0.650737  0  0.354124  0.430048  0  0.856769  0
H  H42  1  0.64019935  0.09563661  0.98844600  1  0.62409  0  0.347807  0.422023  0  0.879517  0
H  H43  1  0.14019702  0.90436581  0.01156434  1  0.624283  0  0.347758  0.421993  0  0.879568  0
C  C44  1  0.64295734  0.57676244  0.41275403  1  1.492399  0  0.261379  0.651356  0  4.087461  0
C  C45  1  0.14296495  0.42323995  0.58724937  1  1.492485  0  0.261368  0.651474  0  4.087368  0
C  C46  1  0.63788490  0.62149384  0.60242827  1  1.553218  0  0.268366  0.635729  0  4.079015  0
C  C47  1  0.13788724  0.37851198  0.39757674  1  1.553269  0  0.268493  0.6359  0  4.07896  0
C  C48  1  0.27975437  0.21949594  0.22030159  1  0.474074  0  0.070525  0.222107  0  4.065364  0
C  C49  1  0.77975089  0.78050799  0.77970215  1  0.473964  0  0.070594  0.22233  0  4.065318  0
C  C50  1  0.12193476  0.18104716  0.17809618  1  0.567627  0  0.05392  0.012174  0  3.989507  0
C  C51  1  0.62193131  0.81895989  0.82190399  1  0.567574  0  0.053839  0.012036  0  3.989521  0
C  C52  1  0.26187284  0.28680961  0.28559518  1  0.003638  0  -0.089832  -0.214663  0  3.983973  0
C  C53  1  0.76187432  0.71319637  0.71440960  1  0.0035  0  -0.089926  -0.214933  0  3.984196  0
C  C54  1  0.12370155  0.30037911  0.33883513  1  0.009288  0  -0.007528  0.044499  0  3.916685  0
C  C55  1  0.62371248  0.69962537  0.66116770  1  0.009041  0  -0.007363  0.044679  0  3.916979  0
C  C56  1  0.96582437  0.37635577  0.68079906  1  0.532931  0  0.095  0.263427  0  4.015496  0
C  C57  1  0.46582707  0.62362966  0.31919167  1  0.533343  0  0.094988  0.263394  0  4.015586  0
C  C58  1  0.13848499  0.37540104  0.63800880  1  0.025178  0  -0.043065  -0.203276  0  4.046607  0
C  C59  1  0.63849288  0.62458822  0.36198490  1  0.025058  0  -0.043074  -0.20324  0  4.046499  0
C  C60  1  0.30424216  0.32672870  0.64256142  1  -0.062231  0  -0.087144  -0.125975  0  3.97233  0
C  C61  1  0.80425117  0.67325740  0.35743053  1  -0.062102  0  -0.087276  -0.126166  0  3.972495  0
C  C62  1  0.30143301  0.27718932  0.68717747  1  0.0268  0  -0.025778  0.05038  0  4.107611  0
C  C63  1  0.80145915  0.72278978  0.31280749  1  0.026938  0  -0.025653  0.050566  0  4.107149  0
C  C64  1  0.13395814  0.28266922  0.73447362  1  -0.003739  0  -0.009316  -0.012424  0  3.976468  0
C  C65  1  0.63397145  0.71731321  0.26551362  1  -0.005243  0  -0.00925  -0.012395  0  3.976086  0
C  C66  1  0.96843138  0.33387836  0.73240271  1  -0.016244  0  -0.023244  -0.009844  0  4.065665  0
C  C67  1  0.46844341  0.66610363  0.26758641  1  -0.015411  0  -0.023373  -0.010182  0  4.065756  0
C  C68  1  0.45888537  0.22052282  0.68653805  1  -0.047119  0  -0.096034  -0.202049  0  4.000486  0
C  C69  1  0.95890237  0.77946375  0.31345268  1  -0.047468  0  -0.096082  -0.2023  0  4.000341  0
C  C70  1  0.45540937  0.17126574  0.72954633  1  0.017905  0  -0.016781  0.111035  0  3.996378  0
C  C71  1  0.95541944  0.82872310  0.27044601  1  0.017829  0  -0.016851  0.1111  0  3.996182  0
C  C72  1  0.29194765  0.17930809  0.78017050  1  -0.038803  0  -0.01371  0.012432  0  4.01893  0
C  C73  1  0.79195832  0.82067374  0.21982086  1  -0.037284  0  -0.013637  0.012495  0  4.018535  0
C  C74  1  0.13194686  0.23605755  0.78341452  1  -0.014896  0  -0.000107  0.008557  0  3.945975  0
C  C75  1  0.63194706  0.76392586  0.21657219  1  -0.015253  0  -0.000138  0.008465  0  3.946061  0
C  C76  1  0.97254497  0.24525647  0.83518793  1  -0.026416  0  -0.008856  -0.077908  0  3.917075  0
C  C77  1  0.47253815  0.75473093  0.16480176  1  -0.026823  0  -0.008884  -0.077847  0  3.917225  0
C  C78  1  0.80683451  0.29763111  0.82977045  1  0.416222  0  0.081074  0.268015  0  4.069128  0
C  C79  1  0.30683702  0.70235902  0.17022313  1  0.416348  0  0.081  0.267904  0  4.069076  0
C  C80  1  0.80536701  0.33919410  0.78024616  1  0.059431  0  -0.117636  -0.283932  0  4.041668  0
C  C81  1  0.30536469  0.66079628  0.21974474  1  0.059379  0  -0.117519  -0.283447  0  4.041248  0
C  C82  1  0.28512094  0.13272665  0.82720840  1  0.008661  0  -0.087442  -0.141606  0  3.983564  0
C  C83  1  0.78513358  0.86726375  0.17278780  1  0.008224  0  -0.08744  -0.14161  0  3.983304  0
C  C84  1  0.13241002  0.14271786  0.87824861  1  -0.049354  0  -0.019937  -0.112166  0  3.977675  0
C  C85  1  0.63241115  0.85727218  0.12175256  1  -0.048939  0  -0.019873  -0.112101  0  3.977459  0
C  C86  1  0.97879927  0.20126005  0.88600440  1  0.024552  0  0.00526  0.132093  0  3.874256  0
C  C87  1  0.47880032  0.79872987  0.11398586  1  0.024391  0  0.005265  0.131915  0  3.874592  0
C  C88  1  0.63935481  0.88667938  0.88938507  1  1.554862  0  0.249091  0.580766  0  4.165153  0
C  C89  1  0.13936318  0.11332808  0.11061621  1  1.555282  0  0.249102  0.580619  0  4.165377  0
C  C90  1  0.63702072  0.91374838  0.07727271  1  1.575467  0  0.273082  0.661743  0  4.065095  0
C  C91  1  0.13701883  0.08624540  0.92272582  1  1.574967  0  0.273111  0.661721  0  4.065029  0
C  C92  1  0.83767774  0.21987880  0.94936008  1  0.011999  0  -0.242279  -0.410457  0  3.965111  0
C  C93  1  0.33767293  0.78011508  0.05063413  1  0.01196  0  -0.242268  -0.410466  0  3.965511  0
C  C94  1  0.95794022  0.24460059  0.34582034  1  -0.041407  0  -0.237229  -0.384877  0  3.998118  0
C  C95  1  0.45796592  0.75540609  0.65417850  1  -0.040777  0  -0.237216  -0.384694  0  3.99816  0
C  C96  1  0.61984318  0.11036091  0.72554047  1  -0.038561  0  -0.237775  -0.40541  0  3.984261  0
C  C97  1  0.11985474  0.88962993  0.27445800  1  -0.039125  0  -0.237807  -0.405671  0  3.984257  0
O  O98  1  0.47137997  0.59102582  0.57402710  1  -1.269632  0  -0.236256  -0.594836  0  2.337912  0
O  O99  1  0.97138651  0.40898307  0.42597821  1  -1.269672  0  -0.236311  -0.594908  0  2.338051  0
O  O100  1  0.81016168  0.56411430  0.43910215  1  -1.263005  0  -0.235399  -0.581291  0  2.327547  0
O  O101  1  0.31016321  0.43589392  0.56090383  1  -1.26317  0  -0.235393  -0.581387  0  2.327706  0
O  O102  1  0.81103910  0.59062770  0.58319598  1  -1.268412  0  -0.240562  -0.601992  0  2.352587  0
O  O103  1  0.31103494  0.40937849  0.41681426  1  -1.268515  0  -0.240605  -0.602062  0  2.352751  0
O  O104  1  0.97133233  0.44898626  0.57159689  1  -1.25589  0  -0.24053  -0.610018  0  2.3997  0
O  O105  1  0.47132577  0.55101498  0.42840463  1  -1.256047  0  -0.240541  -0.609983  0  2.399747  0
O  O106  1  0.64368043  0.45106888  0.49515880  1  -1.457033  0  -0.449132  -0.991535  0  2.202831  0
O  O107  1  0.14369296  0.54893471  0.50484300  1  -1.456633  0  -0.449086  -0.99151  0  2.202678  0
O  O108  1  0.80880876  0.93450454  0.05931540  1  -1.25902  0  -0.237409  -0.600683  0  2.330333  0
O  O109  1  0.30881716  0.06549498  0.94068197  1  -1.258624  0  -0.237388  -0.600622  0  2.330172  0
O  O110  1  0.46656187  0.91256216  0.91708633  1  -1.258218  0  -0.243796  -0.604029  0  2.369286  0
O  O111  1  0.96657378  0.08744201  0.08291359  1  -1.258597  0  -0.243773  -0.604005  0  2.369382  0
O  O112  1  0.46900526  0.93925221  0.06152582  1  -1.262088  0  -0.231267  -0.589244  0  2.372021  0
O  O113  1  0.96899398  0.06074630  0.93847622  1  -1.262222  0  -0.23121  -0.589159  0  2.371781  0
O  O114  1  0.30969949  0.08731818  0.08482597  1  -1.23912  0  -0.227201  -0.550814  0  2.38239  0
O  O115  1  0.80968761  0.91268946  0.91518000  1  -1.239092  0  -0.227128  -0.550901  0  2.382376  0
O  O116  1  0.63913061  0.04866271  0.00579009  1  -1.42875  0  -0.449539  -0.988961  0  2.210904  0
O  O117  1  0.13912676  0.95133847  0.99421489  1  -1.428994  0  -0.449428  -0.988875  0  2.210764  0
O  O118  1  0.47350100  0.19832201  0.19731094  1  -1.085871  0  -0.343561  -0.418167  0  2.307153  0
O  O119  1  0.97349234  0.80168267  0.80270076  1  -1.086241  0  -0.343401  -0.418109  0  2.307019  0
O  O120  1  0.64274949  0.30070263  0.87294545  1  -1.120957  0  -0.339552  -0.432202  0  2.329386  0
O  O121  1  0.14274229  0.69929751  0.12705473  1  -1.121017  0  -0.339518  -0.430907  0  2.328911  0
O  O122  1  0.92745511  0.20655474  0.19442736  1  -1.141804  0  -0.356524  -0.429768  0  2.350936  0
O  O123  1  0.42744624  0.79345501  0.80556876  1  -1.142433  0  -0.356417  -0.429692  0  2.350913  0
O  O124  1  0.79637464  0.41742487  0.67583790  1  -1.158014  0  -0.344399  -0.43024  0  2.285991  0
O  O125  1  0.29637640  0.58256578  0.32415726  1  -1.158112  0  -0.34437  -0.430153  0  2.286115  0
