# generated using pymatgen
data_Zr6H22C52S10N2O37
_symmetry_space_group_name_H-M   'P 1'
_cell_length_a   16.45612636
_cell_length_b   16.44961232
_cell_length_c   16.52215102
_cell_angle_alpha   61.73404287
_cell_angle_beta   59.83919674
_cell_angle_gamma   60.30334165
_symmetry_Int_Tables_number   1
_chemical_formula_structural   Zr6H22C52S10N2O37
_chemical_formula_sum   'Zr6 H22 C52 S10 N2 O37'
_cell_volume   3205.31602490
_cell_formula_units_Z   1
loop_
 _symmetry_equiv_pos_site_id
 _symmetry_equiv_pos_as_xyz
  1  'x, y, z'
loop_
 _atom_site_type_symbol
 _atom_site_label
 _atom_site_symmetry_multiplicity
 _atom_site_fract_x
 _atom_site_fract_y
 _atom_site_fract_z
 _atom_site_occupancy
 _atom_site_pbe_bader_charge
 _atom_site_pbe_bader_spin_density
 _atom_site_pbe_cm5_charge
 _atom_site_pbe_ddec_charge
 _atom_site_pbe_ddec_spin_density
 _atom_site_pbe_ddec_sum_bond_order
 _atom_site_pbe_magmom
Zr  Zr0  1  0.88841132  0.90315036  0.59745294  1  2.631949  0  1.625572  2.371168  0  2.787722  0
Zr  Zr1  1  0.11253856  0.10266920  0.39789211  1  2.641852  0  1.631304  2.373251  0  2.776467  0
Zr  Zr2  1  0.10265663  0.89354150  0.60762029  1  2.640318  0  1.62396  2.374672  0  2.73376  0
Zr  Zr3  1  0.89833135  0.11178717  0.38915549  1  2.633109  0  1.615139  2.372798  0  2.741694  0
Zr  Zr4  1  0.10982484  0.89324882  0.38933783  1  2.638309  0  1.617731  2.37692  0  2.728407  0
Zr  Zr5  1  0.89131939  0.11152189  0.60752238  1  2.638261  0  1.618505  2.375533  0  2.732491  0
H  H6  1  0.07770632  0.75277253  0.57789712  1  0.59415  0  0.33164  0.424794  0  0.85461  0
H  H7  1  0.09342609  0.08202185  0.24809957  1  0.592886  0  0.331588  0.42499  0  0.855194  0
H  H8  1  0.08371240  0.08159609  0.59001441  1  0.600358  0  0.331796  0.425082  0  0.85313  0
H  H9  1  0.74532376  0.09454295  0.57709039  1  0.600591  0  0.329561  0.422788  0  0.8566  0
H  H10  1  0.12561535  0.61199561  0.36164305  1  0.12099  0  0.121742  0.146774  0  0.970328  0
H  H11  1  0.61096774  0.12719707  0.89951660  1  0.108042  0  0.120483  0.144987  0  0.972741  0
H  H12  1  0.86796379  0.12523111  0.11733750  1  0.153108  0  0.117525  0.141714  0  0.976498  0
H  H13  1  0.62283435  0.39700004  0.36284676  1  0.099682  0  0.119885  0.144782  0  0.972989  0
H  H14  1  0.09523475  0.64369903  0.87250570  1  0.087978  0  0.105475  0.111583  0  1.026032  0
H  H15  1  0.84240616  0.65487513  0.84991173  1  0.079276  0  0.101461  0.117121  0  1.015475  0
H  H16  1  0.88854724  0.37717314  0.13770841  1  0.054052  0  0.101992  0.105438  0  1.03147  0
H  H17  1  0.15241316  0.35480112  0.14947213  1  0.09771  0  0.104507  0.121671  0  1.009594  0
H  H18  1  0.62243983  0.87547108  0.60966955  1  0.134217  0  0.119201  0.144191  0  0.976153  0
H  H19  1  0.81090846  0.44960795  0.67645094  1  0.594685  0  0.33619  0.358739  0  0.879785  0
H  H20  1  0.44662991  0.81394370  0.06058771  1  0.60598  0  0.338282  0.361965  0  0.87558  0
H  H21  1  0.17098080  0.81359952  0.93533438  1  0.605827  0  0.337825  0.360831  0  0.878287  0
H  H22  1  0.43365239  0.57770167  0.67469131  1  0.604787  0  0.335463  0.359016  0  0.878833  0
H  H23  1  0.43251201  0.17355099  0.32007332  1  0.589116  0  0.337343  0.359698  0  0.876903  0
H  H24  1  0.20425371  0.54947467  0.92431550  1  0.452738  0  0.301547  0.293751  0  0.966264  0
H  H25  1  0.24188671  0.46234272  0.01920341  1  0.423868  0  0.305731  0.297496  0  0.946386  0
H  H26  1  0.82220614  0.42906242  0.04277530  1  0.435646  0  0.300995  0.292434  0  0.965996  0
H  H27  1  0.77575818  0.52475370  0.95709159  1  0.41959  0  0.303799  0.295185  0  0.948273  0
C  C28  1  0.99470245  0.73909868  0.48449897  1  1.587823  0  0.224199  0.639069  0  4.16473  0
C  C29  1  0.28223970  0.98819307  0.23496191  1  1.561946  0  0.220683  0.656362  0  4.153953  0
C  C30  1  0.99783533  0.27266937  0.50495681  1  1.570941  0  0.221865  0.656179  0  4.155279  0
C  C31  1  0.72457467  0.00909530  0.76832060  1  1.573023  0  0.224836  0.639776  0  4.163637  0
C  C32  1  0.97888136  0.74196137  0.76662108  1  1.517599  0  0.234477  0.641226  0  4.090397  0
C  C33  1  0.73162711  0.00671239  0.48603126  1  1.591349  0  0.224423  0.642128  0  4.16253  0
C  C34  1  0.01242386  0.27132103  0.23647073  1  1.540265  0  0.235033  0.643008  0  4.086597  0
C  C35  1  0.27626792  0.99158974  0.50125245  1  1.602568  0  0.221536  0.656991  0  4.158048  0
C  C36  1  0.27245678  0.72990782  0.49770094  1  1.593636  0  0.222199  0.658925  0  4.148344  0
C  C37  1  0.99091059  0.99694257  0.77794810  1  1.564344  0  0.221558  0.658923  0  4.148816  0
C  C38  1  0.73413395  0.28183179  0.49316349  1  1.576506  0  0.224265  0.639526  0  4.159309  0
C  C39  1  0.00042982  0.00031882  0.22649113  1  1.583346  0  0.225346  0.6431  0  4.154915  0
C  C40  1  0.92627526  0.42189729  0.56458990  1  0.532242  0  0.082151  0.27343  0  4.103993  0
C  C41  1  0.06215751  0.59266794  0.42330733  1  0.061622  0  -0.086616  -0.131932  0  3.958983  0
C  C42  1  0.99484357  0.36417923  0.50179013  1  -0.075607  0  -0.037608  -0.238708  0  3.925499  0
C  C43  1  0.99426891  0.64928636  0.48601226  1  -0.159554  0  -0.0203  -0.102859  0  3.955248  0
C  C44  1  0.03748750  0.50990848  0.45124879  1  -0.175788  0  -0.022711  0.00968  0  4.100618  0
C  C45  1  0.95093763  0.50534921  0.53527170  1  -0.1409  0  -0.042  -0.160991  0  4.126456  0
C  C46  1  0.42327915  0.92522994  0.08880384  1  0.549832  0  0.083051  0.274391  0  4.104029  0
C  C47  1  0.58972736  0.06557431  0.91896558  1  0.077963  0  -0.08727  -0.132644  0  3.959989  0
C  C48  1  0.37119397  0.98797033  0.14660218  1  -0.092316  0  -0.039026  -0.24018  0  3.923581  0
C  C49  1  0.63962404  0.00410356  0.86124136  1  -0.183617  0  -0.020013  -0.102825  0  3.954947  0
C  C50  1  0.51092299  0.03700384  0.00232282  1  -0.181606  0  -0.023518  0.008204  0  4.103028  0
C  C51  1  0.50307673  0.95371784  0.00618685  1  -0.132212  0  -0.040649  -0.15937  0  4.122604  0
C  C52  1  0.05820193  0.92802997  0.91704633  1  0.583037  0  0.083421  0.274534  0  4.098113  0
C  C53  1  0.92897984  0.06315992  0.09278104  1  -0.073534  0  -0.090365  -0.136235  0  3.965109  0
C  C54  1  0.99111182  0.99482338  0.86738639  1  -0.110159  0  -0.038016  -0.239285  0  3.913068  0
C  C55  1  0.99680948  0.99763299  0.14044657  1  -0.072343  0  -0.01996  -0.104231  0  3.946775  0
C  C56  1  0.95063215  0.03804475  0.01154536  1  -0.119218  0  -0.023935  0.009757  0  4.099303  0
C  C57  1  0.03483854  0.95319076  0.99925479  1  -0.198713  0  -0.040963  -0.159489  0  4.117034  0
C  C58  1  0.41387418  0.59433728  0.56282898  1  0.529081  0  0.081416  0.272207  0  4.097698  0
C  C59  1  0.59696882  0.42089512  0.42545352  1  0.041825  0  -0.087556  -0.132174  0  3.956522  0
C  C60  1  0.36352872  0.64399286  0.49640467  1  -0.12448  0  -0.037959  -0.23867  0  3.91343  0
C  C61  1  0.64557306  0.37160280  0.49231528  1  -0.163286  0  -0.01987  -0.102748  0  3.943879  0
C  C62  1  0.51268637  0.50244138  0.45039424  1  -0.136267  0  -0.023108  0.011071  0  4.095628  0
C  C63  1  0.49896176  0.51349340  0.53627246  1  -0.13865  0  -0.042334  -0.162925  0  4.12431  0
C  C64  1  0.03910818  0.61056741  0.90166504  1  -0.045622  0  -0.098086  -0.165756  0  3.981014  0
C  C65  1  0.89411840  0.61815151  0.88937035  1  -0.003391  0  -0.111054  -0.241309  0  3.97851  0
C  C66  1  0.88566960  0.53630446  0.97071195  1  0.373428  0  0.095162  0.259222  0  4.086957  0
C  C67  1  0.95525617  0.48885883  0.02110165  1  0.009065  0  -0.010815  -0.003012  0  3.971997  0
C  C68  1  0.94853287  0.40638950  0.10486331  1  -0.046615  0  -0.101285  -0.169982  0  3.993471  0
C  C69  1  0.09798781  0.39423810  0.11273475  1  0.05116  0  -0.108705  -0.238034  0  3.9689  0
C  C70  1  0.10668308  0.47589941  0.03109267  1  0.346975  0  0.096746  0.261078  0  4.084865  0
C  C71  1  0.03400233  0.52645832  0.98377338  1  -0.01531  0  -0.010705  -0.003818  0  3.972021  0
C  C72  1  0.97030867  0.65533904  0.85533061  1  0.013772  0  -0.023733  -0.022861  0  4.043813  0
C  C73  1  0.01885378  0.36000770  0.14970538  1  -0.023842  0  -0.02366  -0.022757  0  4.04575  0
C  C74  1  0.41668044  0.05977297  0.42946732  1  0.601136  0  0.083403  0.273851  0  4.099258  0
C  C75  1  0.59678043  0.93496043  0.55090904  1  0.093443  0  -0.088514  -0.132701  0  3.962144  0
C  C76  1  0.36704492  0.99215998  0.49631608  1  -0.176151  0  -0.0377  -0.237955  0  3.919724  0
C  C77  1  0.64466657  0.00295798  0.48526787  1  -0.23897  0  -0.021902  -0.106374  0  3.959488  0
C  C78  1  0.51384115  0.95485595  0.53080538  1  -0.174186  0  -0.023816  0.007818  0  4.10584  0
C  C79  1  0.50061397  0.03800610  0.44959305  1  -0.143748  0  -0.04046  -0.157762  0  4.122608  0
S  S80  1  0.08867171  0.41188440  0.40780273  1  0.260415  0  0.073841  0.120694  0  2.758522  0
S  S81  1  0.89964813  0.60292288  0.57955993  1  0.218934  0  0.059846  0.099732  0  2.788684  0
S  S82  1  0.42036030  0.08051358  0.10031874  1  0.254709  0  0.068009  0.112516  0  2.761268  0
S  S83  1  0.59224233  0.91061116  0.90760018  1  0.227907  0  0.066409  0.10978  0  2.786534  0
S  S84  1  0.89999035  0.08733463  0.92190783  1  0.249228  0  0.063657  0.105993  0  2.746448  0
S  S85  1  0.08719556  0.90435206  0.08749472  1  0.219345  0  0.067715  0.11176  0  2.769862  0
S  S86  1  0.42112604  0.59171716  0.40183489  1  0.26054  0  0.070265  0.115442  0  2.744142  0
S  S87  1  0.58956796  0.42396046  0.58614861  1  0.230108  0  0.063348  0.105358  0  2.776383  0
S  S88  1  0.42335205  0.90278646  0.58261716  1  0.260333  0  0.069019  0.113496  0  2.745558  0
S  S89  1  0.59000109  0.09147202  0.39800334  1  0.235491  0  0.063024  0.104049  0  2.772306  0
N  N90  1  0.18326718  0.51086321  0.99637973  1  -1.219637  0  -0.600557  -0.622934  0  3.320338  0
N  N91  1  0.80882538  0.50149326  0.00563765  1  -1.223777  0  -0.602464  -0.623611  0  3.318649  0
O  O92  1  0.92302005  0.77703166  0.55215824  1  -1.181032  0  -0.357033  -0.616216  0  2.292547  0
O  O93  1  0.24783355  0.05701727  0.27180810  1  -1.175667  0  -0.358988  -0.61884  0  2.280165  0
O  O94  1  0.07108546  0.23393684  0.43821438  1  -1.184177  0  -0.359451  -0.6182  0  2.279818  0
O  O95  1  0.75642597  0.94341914  0.72861933  1  -1.171111  0  -0.356676  -0.615935  0  2.292857  0
O  O96  1  0.05045202  0.77233232  0.73531989  1  -1.179569  0  -0.351297  -0.614133  0  2.277291  0
O  O97  1  0.76640330  0.07517390  0.42004576  1  -1.17604  0  -0.351971  -0.616933  0  2.25485  0
O  O98  1  0.94167483  0.23974179  0.26700990  1  -1.180663  0  -0.359042  -0.62618  0  2.274048  0
O  O99  1  0.23959238  0.92505169  0.56999727  1  -1.180829  0  -0.353798  -0.617493  0  2.240331  0
O  O100  1  0.23991255  0.76244158  0.42809837  1  -1.180517  0  -0.358862  -0.624628  0  2.251452  0
O  O101  1  0.92292044  0.06789927  0.74380700  1  -1.174831  0  -0.359547  -0.626473  0  2.249466  0
O  O102  1  0.76503619  0.24722129  0.56403393  1  -1.169209  0  -0.349604  -0.611617  0  2.26171  0
O  O103  1  0.06951713  0.93125588  0.25929193  1  -1.181544  0  -0.349864  -0.612012  0  2.261543  0
O  O104  1  0.05981120  0.92848603  0.73985529  1  -1.175192  0  -0.360486  -0.602534  0  2.278665  0
O  O105  1  0.77102496  0.24552544  0.42354858  1  -1.179108  0  -0.358621  -0.61343  0  2.260997  0
O  O106  1  0.93446090  0.07265925  0.25984789  1  -1.180037  0  -0.360603  -0.617279  0  2.260701  0
O  O107  1  0.23176564  0.76520186  0.56892723  1  -1.168661  0  -0.361888  -0.60576  0  2.274177  0
O  O108  1  0.91385793  0.77908819  0.72632112  1  -1.176453  0  -0.367957  -0.625425  0  2.304575  0
O  O109  1  0.23977904  0.06037421  0.43549198  1  -1.173614  0  -0.367368  -0.604079  0  2.31152  0
O  O110  1  0.08024956  0.23141014  0.27366759  1  -1.18336  0  -0.36137  -0.618244  0  2.304813  0
O  O111  1  0.76358768  0.94029304  0.55543504  1  -1.180855  0  -0.363221  -0.614339  0  2.289933  0
O  O112  1  0.75823559  0.07834746  0.73499474  1  -1.174326  0  -0.356004  -0.610007  0  2.256468  0
O  O113  1  0.06672059  0.77005975  0.41791095  1  -1.182947  0  -0.354311  -0.607988  0  2.252998  0
O  O114  1  0.24448990  0.92198862  0.26750125  1  -1.169381  0  -0.361821  -0.604548  0  2.267936  0
O  O115  1  0.92863299  0.23805170  0.57357923  1  -1.170331  0  -0.36241  -0.604144  0  2.269777  0
O  O116  1  0.81767339  0.06940606  0.55417377  1  -1.229697  0  -0.693162  -1.069471  0  2.353691  0
O  O117  1  0.05930932  0.05884371  0.56478302  1  -1.228447  0  -0.692933  -1.070968  0  2.357581  0
O  O118  1  0.06685707  0.05866821  0.31912958  1  -1.220164  0  -0.694095  -1.071187  0  2.360597  0
O  O119  1  0.05553236  0.82381576  0.55419482  1  -1.223823  0  -0.694139  -1.070746  0  2.359699  0
O  O120  1  0.13380189  0.95355421  0.45690186  1  -1.198967  0  -0.78823  -1.150176  0  2.126006  0
O  O121  1  0.95644019  0.96116525  0.44839082  1  -1.202519  0  -0.78865  -1.147959  0  2.112096  0
O  O122  1  0.95858149  0.13438583  0.45714024  1  -1.199009  0  -0.789663  -1.147327  0  2.122931  0
O  O123  1  0.95044835  0.96174269  0.62980140  1  -1.197438  0  -0.790074  -1.148657  0  2.125903  0
O  O124  1  0.84706725  0.39940977  0.64335963  1  -1.097637  0  -0.333073  -0.400459  0  2.284971  0
O  O125  1  0.39872774  0.84807406  0.10985937  1  -1.100034  0  -0.331397  -0.399357  0  2.284122  0
O  O126  1  0.13592018  0.84992160  0.88882203  1  -1.099523  0  -0.33025  -0.395556  0  2.284136  0
O  O127  1  0.38398021  0.62034517  0.64294880  1  -1.103479  0  -0.33345  -0.400925  0  2.280586  0
O  O128  1  0.38706340  0.13639014  0.35578594  1  -1.084319  0  -0.328602  -0.395294  0  2.295705  0
