# generated using pymatgen
data_Zn2B2H48C55N6(O2F)4
_symmetry_space_group_name_H-M   'P 1'
_cell_length_a   14.92112480
_cell_length_b   14.92112337
_cell_length_c   15.93815030
_cell_angle_alpha   83.06705970
_cell_angle_beta   83.06702103
_cell_angle_gamma   86.93527247
_symmetry_Int_Tables_number   1
_chemical_formula_structural   Zn2B2H48C55N6(O2F)4
_chemical_formula_sum   'Zn4 B4 H96 C110 N12 O16 F8'
_cell_volume   3494.04161998
_cell_formula_units_Z   2
loop_
 _symmetry_equiv_pos_site_id
 _symmetry_equiv_pos_as_xyz
  1  'x, y, z'
loop_
 _atom_site_type_symbol
 _atom_site_label
 _atom_site_symmetry_multiplicity
 _atom_site_fract_x
 _atom_site_fract_y
 _atom_site_fract_z
 _atom_site_occupancy
 _atom_site_pbe_bader_charge
 _atom_site_pbe_bader_spin_density
 _atom_site_pbe_cm5_charge
 _atom_site_pbe_ddec_charge
 _atom_site_pbe_ddec_spin_density
 _atom_site_pbe_ddec_sum_bond_order
 _atom_site_pbe_magmom
Zn  Zn0  1  0.87748666  0.10484607  0.84224141  1  1.297961  0  0.674609  0.828141  0  2.395168  0
Zn  Zn1  1  0.89515342  0.12251288  0.65775790  1  1.300225  0  0.674607  0.828178  0  2.395087  0
Zn  Zn2  1  0.12251305  0.89515327  0.15775828  1  1.298014  0  0.674608  0.828188  0  2.39513  0
Zn  Zn3  1  0.10484630  0.87748647  0.34224179  1  1.300233  0  0.674595  0.828109  0  2.395211  0
B  B4  1  0.40522965  0.07993301  0.64105192  1  2.316732  0  0.073261  0.804645  0  3.317114  0
B  B5  1  0.92006800  0.59477040  0.85894793  1  2.316736  0  0.073249  0.804613  0  3.317207  0
B  B6  1  0.59477075  0.92006766  0.35894754  1  2.31673  0  0.073178  0.804549  0  3.317312  0
B  B7  1  0.07993171  0.40522962  0.14105168  1  2.316773  0  0.073243  0.804575  0  3.31725  0
H  H8  1  0.70727536  0.25979885  0.30438989  1  0.022707  0  0.093548  0.084795  0  0.988786  0
H  H9  1  0.74020080  0.29272412  0.19561104  1  0.022712  0  0.093556  0.08479  0  0.988803  0
H  H10  1  0.29272368  0.74020052  0.69561049  1  0.02271  0  0.093551  0.084806  0  0.98879  0
H  H11  1  0.25979824  0.70727458  0.80439005  1  0.0227  0  0.093574  0.084851  0  0.988818  0
H  H12  1  0.66944325  0.13434289  0.23998129  1  0.084288  0  0.105752  0.117506  0  0.960043  0
H  H13  1  0.86565738  0.33055676  0.26001886  1  0.084292  0  0.105753  0.117517  0  0.960044  0
H  H14  1  0.33055646  0.86565646  0.76001840  1  0.084288  0  0.105694  0.117402  0  0.960079  0
H  H15  1  0.13434166  0.66944328  0.73998083  1  0.084293  0  0.105734  0.117495  0  0.960072  0
H  H16  1  0.77380043  0.09770582  0.27571360  1  0.060074  0  0.096592  0.102037  0  0.998216  0
H  H17  1  0.90229351  0.22619941  0.22428663  1  0.06008  0  0.096602  0.102066  0  0.998187  0
H  H18  1  0.22619929  0.90229285  0.72428616  1  0.060089  0  0.096577  0.102018  0  0.998226  0
H  H19  1  0.09770553  0.77380063  0.77571369  1  0.060071  0  0.096585  0.102034  0  0.998224  0
H  H20  1  0.68386737  0.23162928  0.08383598  1  0.080321  0  0.11357  0.121312  0  0.981506  0
H  H21  1  0.76837072  0.31613218  0.41616490  1  0.08034  0  0.113563  0.121298  0  0.981501  0
H  H22  1  0.31613235  0.76837007  0.91616433  1  0.080324  0  0.113567  0.121295  0  0.981511  0
H  H23  1  0.23162899  0.68386716  0.58383604  1  0.080323  0  0.113568  0.121284  0  0.981518  0
H  H24  1  0.74948599  0.21294510  0.93526573  1  0.111031  0  0.124945  0.100053  0  0.995998  0
H  H25  1  0.78705657  0.25051354  0.56473467  1  0.11104  0  0.124947  0.100049  0  0.995999  0
H  H26  1  0.25051373  0.78705627  0.06473436  1  0.111048  0  0.124946  0.100021  0  0.996006  0
H  H27  1  0.21294518  0.74948640  0.43526536  1  0.111036  0  0.124949  0.100053  0  0.995987  0
H  H28  1  0.93617589  0.01756008  0.01863716  1  0.082675  0  0.119841  0.084235  0  1.007098  0
H  H29  1  0.98244087  0.06382351  0.48136223  1  0.082646  0  0.119834  0.084214  0  1.007112  0
H  H30  1  0.06382383  0.98244129  0.98136230  1  0.082591  0  0.119836  0.084212  0  1.007114  0
H  H31  1  0.01755952  0.93617649  0.51863731  1  0.08261  0  0.119836  0.084226  0  1.007108  0
H  H32  1  0.88493149  0.03309187  0.16980920  1  0.10502  0  0.108583  0.121922  0  1.029474  0
H  H33  1  0.96690824  0.11506801  0.33019029  1  0.105006  0  0.108578  0.121913  0  1.029483  0
H  H34  1  0.11506823  0.96690748  0.83018986  1  0.105017  0  0.108563  0.121904  0  1.029475  0
H  H35  1  0.03309215  0.88493131  0.66980870  1  0.105032  0  0.108582  0.121924  0  1.029477  0
H  H36  1  0.26827373  0.09593100  0.52995097  1  0.090241  0  0.105388  0.160316  0  0.992064  0
H  H37  1  0.90406977  0.73172619  0.97004835  1  0.090257  0  0.105391  0.160318  0  0.992085  0
H  H38  1  0.73172599  0.90406969  0.47004857  1  0.090236  0  0.105386  0.160317  0  0.992068  0
H  H39  1  0.09593130  0.26827310  0.02995183  1  0.090251  0  0.105389  0.160323  0  0.992059  0
H  H40  1  0.15313000  0.06834476  0.56557235  1  0.106328  0  0.093422  0.144877  0  1.043115  0
H  H41  1  0.93165586  0.84686959  0.93442705  1  0.106337  0  0.093433  0.144877  0  1.043119  0
H  H42  1  0.84686972  0.93165526  0.43442727  1  0.106331  0  0.093428  0.144867  0  1.043124  0
H  H43  1  0.06834453  0.15312973  0.06557257  1  0.106317  0  0.093419  0.144867  0  1.043123  0
H  H44  1  0.24410007  0.98689884  0.58064890  1  0.077682  0  0.098023  0.144661  0  0.997297  0
H  H45  1  0.01310131  0.75589978  0.91935079  1  0.077709  0  0.098019  0.144643  0  0.997316  0
H  H46  1  0.75589965  0.01310118  0.41935134  1  0.077718  0  0.098018  0.14465  0  0.997299  0
H  H47  1  0.98689909  0.24410022  0.08064813  1  0.077725  0  0.098001  0.144632  0  0.997358  0
H  H48  1  0.08944110  0.20876352  0.85842492  1  0.07286  0  0.094428  0.144257  0  1.00879  0
H  H49  1  0.79123599  0.91055900  0.64157524  1  0.072839  0  0.094421  0.144233  0  1.008798  0
H  H50  1  0.91055930  0.79123715  0.14157455  1  0.072589  0  0.094434  0.144259  0  1.008788  0
H  H51  1  0.20876373  0.08944102  0.35842501  1  0.072851  0  0.094435  0.144261  0  1.008775  0
H  H52  1  0.19567942  0.23074064  0.89217666  1  0.062471  0  0.090665  0.12938  0  1.030185  0
H  H53  1  0.76925896  0.80432145  0.60782212  1  0.062464  0  0.090666  0.129379  0  1.030213  0
H  H54  1  0.80432098  0.76926003  0.10782281  1  0.06247  0  0.090645  0.129337  0  1.030217  0
H  H55  1  0.23074008  0.19567927  0.39217749  1  0.06247  0  0.090662  0.12937  0  1.030261  0
H  H56  1  0.14453872  0.12677023  0.92549757  1  0.045038  0  0.091932  0.128419  0  1.021916  0
H  H57  1  0.87322911  0.85546238  0.57450245  1  0.045045  0  0.091933  0.128412  0  1.021908  0
H  H58  1  0.85546168  0.87323044  0.07450190  1  0.045019  0  0.091921  0.128393  0  1.021928  0
H  H59  1  0.12676993  0.14453834  0.42549779  1  0.045037  0  0.091925  0.128405  0  1.021914  0
H  H60  1  0.31980897  0.02768583  0.96123734  1  0.072575  0  0.100442  0.100145  0  1.00992  0
H  H61  1  0.97231449  0.68019048  0.53876329  1  0.072552  0  0.100452  0.100163  0  1.009919  0
H  H62  1  0.68019006  0.97231354  0.03876368  1  0.072403  0  0.100464  0.100178  0  1.009877  0
H  H63  1  0.02768590  0.31980952  0.46123625  1  0.072398  0  0.100467  0.100196  0  1.009849  0
H  H64  1  0.28539925  0.06943324  0.10783394  1  0.120574  0  0.101708  0.10956  0  1.020144  0
H  H65  1  0.93056714  0.71460034  0.39216698  1  0.120577  0  0.101683  0.109505  0  1.020176  0
H  H66  1  0.71459979  0.93056748  0.89216693  1  0.120578  0  0.101684  0.109513  0  1.020169  0
H  H67  1  0.06943190  0.28540038  0.60783326  1  0.120577  0  0.101696  0.109536  0  1.020132  0
H  H68  1  0.29586426  0.22998970  0.13497783  1  0.093053  0  0.100698  0.098689  0  1.004943  0
H  H69  1  0.77001094  0.70413634  0.36502362  1  0.093084  0  0.100667  0.098647  0  1.004956  0
H  H70  1  0.70413613  0.77001164  0.86502282  1  0.093068  0  0.100699  0.098708  0  1.004924  0
H  H71  1  0.22998810  0.29586505  0.63497718  1  0.093088  0  0.10067  0.098656  0  1.004927  0
H  H72  1  0.34241252  0.34677723  0.01488195  1  0.048159  0  0.10335  0.10147  0  0.991602  0
H  H73  1  0.65322391  0.65758784  0.48511886  1  0.048181  0  0.103358  0.101454  0  0.99162  0
H  H74  1  0.65758855  0.65322341  0.98511807  1  0.048166  0  0.103344  0.101457  0  0.991626  0
H  H75  1  0.34677581  0.34241285  0.51488193  1  0.048177  0  0.103353  0.101476  0  0.991596  0
H  H76  1  0.38070792  0.30319608  0.86826504  1  0.04019  0  0.10254  0.101141  0  0.993617  0
H  H77  1  0.69680475  0.61929136  0.63173563  1  0.040177  0  0.102538  0.101153  0  0.993614  0
H  H78  1  0.61929247  0.69680324  0.13173458  1  0.040435  0  0.102557  0.101157  0  0.993617  0
H  H79  1  0.30319632  0.38070860  0.36826447  1  0.040174  0  0.102534  0.10115  0  0.993598  0
H  H80  1  0.62761771  0.11831886  0.91526807  1  0.064522  0  0.090418  0.135966  0  1.054496  0
H  H81  1  0.88168113  0.37238194  0.58473125  1  0.064531  0  0.090418  0.135968  0  1.054494  0
H  H82  1  0.37238200  0.88168116  0.08473154  1  0.064524  0  0.090419  0.135967  0  1.054495  0
H  H83  1  0.11831858  0.62761808  0.41526836  1  0.06452  0  0.090427  0.135962  0  1.054497  0
H  H84  1  0.51101299  0.10155980  0.95225844  1  0.063967  0  0.092162  0.133617  0  1.014794  0
H  H85  1  0.89844064  0.48898734  0.54774142  1  0.063951  0  0.092149  0.133624  0  1.014804  0
H  H86  1  0.48898741  0.89844087  0.04774165  1  0.06396  0  0.092148  0.133611  0  1.014786  0
H  H87  1  0.10155908  0.51101268  0.45225882  1  0.063951  0  0.092151  0.133609  0  1.014772  0
H  H88  1  0.54688154  0.21085047  0.91392533  1  0.041858  0  0.091597  0.130494  0  0.998725  0
H  H89  1  0.78915036  0.45311915  0.58607509  1  0.041882  0  0.091616  0.13049  0  0.998685  0
H  H90  1  0.45311885  0.78915020  0.08607413  1  0.041865  0  0.091599  0.130498  0  0.998734  0
H  H91  1  0.21085003  0.54688151  0.41392563  1  0.04186  0  0.091588  0.130475  0  0.998739  0
H  H92  1  0.56572509  0.03074717  0.56284690  1  0.113997  0  0.106561  0.159295  0  1.00242  0
H  H93  1  0.96925198  0.43427345  0.93715326  1  0.114011  0  0.106542  0.15925  0  1.002453  0
H  H94  1  0.43427395  0.96925152  0.43715357  1  0.114008  0  0.106552  0.159299  0  1.00243  0
H  H95  1  0.03074841  0.56572587  0.06284635  1  0.114016  0  0.10653  0.159289  0  1.002323  0
H  H96  1  0.67523065  0.03362267  0.59863112  1  0.071067  0  0.098797  0.15086  0  1.000079  0
H  H97  1  0.96637608  0.32476745  0.90136973  1  0.071048  0  0.098804  0.150844  0  1.0001  0
H  H98  1  0.32476839  0.96637603  0.40136871  1  0.071059  0  0.0988  0.15085  0  1.000084  0
H  H99  1  0.03362431  0.67523119  0.09863122  1  0.071043  0  0.09881  0.150876  0  1.000098  0
H  H100  1  0.62424931  0.13267231  0.55037120  1  0.060963  0  0.102776  0.151313  0  0.97507  0
H  H101  1  0.86732630  0.37575046  0.94962890  1  0.060945  0  0.102767  0.151296  0  0.975057  0
H  H102  1  0.37575040  0.86732636  0.44962856  1  0.060951  0  0.102773  0.151312  0  0.975038  0
H  H103  1  0.13267409  0.62424953  0.05037127  1  0.060889  0  0.102764  0.151301  0  0.975046  0
C  C104  1  0.75582675  0.24417244  0.25000018  1  -0.0098  0  -0.153437  -0.125012  0  3.912007  0
C  C105  1  0.24417229  0.75582626  0.75000028  1  -0.009755  0  -0.153408  -0.125089  0  3.912054  0
C  C106  1  0.74206432  0.14742932  0.23058792  1  -0.055854  0  -0.155677  -0.20616  0  3.92089  0
C  C107  1  0.85257054  0.25793553  0.26941228  1  -0.055838  0  -0.155694  -0.20623  0  3.920867  0
C  C108  1  0.25793539  0.85256935  0.76941248  1  -0.056072  0  -0.155635  -0.206005  0  3.920805  0
C  C109  1  0.14742918  0.74206449  0.73058734  1  -0.055846  0  -0.155657  -0.206158  0  3.920913  0
C  C110  1  0.77884754  0.13397582  0.14076765  1  0.017268  0  0.020134  0.173693  0  3.942889  0
C  C111  1  0.86602451  0.22115137  0.35923258  1  0.017275  0  0.020089  0.17371  0  3.942899  0
C  C112  1  0.22115150  0.86602355  0.85923211  1  0.017446  0  0.020133  0.173692  0  3.942823  0
C  C113  1  0.13397520  0.77884798  0.64076711  1  0.017271  0  0.020065  0.173663  0  3.94287  0
C  C114  1  0.74093894  0.18405983  0.07248446  1  0.002309  0  -0.084199  -0.195745  0  3.956257  0
C  C115  1  0.81594073  0.25906065  0.42751632  1  0.002345  0  -0.084182  -0.195766  0  3.956175  0
C  C116  1  0.25906010  0.81594022  0.92751585  1  0.002377  0  -0.084249  -0.195854  0  3.956146  0
C  C117  1  0.18405966  0.74093867  0.57248455  1  0.002303  0  -0.084161  -0.195677  0  3.956169  0
C  C118  1  0.77599750  0.17367768  0.98956763  1  0.43716  0  0.050679  0.102526  0  3.948954  0
C  C119  1  0.82632434  0.22400159  0.51043276  1  0.43697  0  0.050707  0.1026  0  3.948848  0
C  C120  1  0.22400154  0.82632439  0.01043309  1  0.436972  0  0.050753  0.10275  0  3.948713  0
C  C121  1  0.17367740  0.77599767  0.48956797  1  0.437168  0  0.050633  0.102471  0  3.948921  0
C  C122  1  0.88145556  0.06563293  0.03569883  1  0.455226  0  0.058549  0.110162  0  3.942108  0
C  C123  1  0.93436796  0.11854346  0.46430065  1  0.455217  0  0.058518  0.110092  0  3.942086  0
C  C124  1  0.11854348  0.93436779  0.96430016  1  0.455212  0  0.058532  0.110139  0  3.94204  0
C  C125  1  0.06563311  0.88145583  0.53569890  1  0.455226  0  0.058553  0.110155  0  3.942154  0
C  C126  1  0.85158413  0.07421357  0.12061945  1  0.013803  0  -0.081954  -0.18374  0  3.930071  0
C  C127  1  0.92578685  0.14841565  0.37938001  1  0.013786  0  -0.081887  -0.183656  0  3.93003  0
C  C128  1  0.14841491  0.92578648  0.87938024  1  0.013785  0  -0.081911  -0.183674  0  3.929951  0
C  C129  1  0.07421354  0.85158502  0.62061946  1  0.013779  0  -0.081917  -0.183733  0  3.930056  0
C  C130  1  0.06263848  0.11132291  0.72503465  1  1.5306  0  0.211659  0.617046  0  4.180153  0
C  C131  1  0.88867838  0.93736227  0.77496396  1  1.530601  0  0.211601  0.617006  0  4.180276  0
C  C132  1  0.93736192  0.88867708  0.27496552  1  1.530608  0  0.21162  0.616982  0  4.18027  0
C  C133  1  0.11132269  0.06263837  0.22503543  1  1.530589  0  0.211659  0.617046  0  4.180245  0
C  C134  1  0.16106499  0.11532208  0.72699868  1  0.02298  0  -0.042262  -0.263291  0  3.957189  0
C  C135  1  0.88467832  0.83893534  0.77300193  1  0.022996  0  -0.042249  -0.263228  0  3.957136  0
C  C136  1  0.83893473  0.88467861  0.27300149  1  0.022986  0  -0.042263  -0.263208  0  3.957184  0
C  C137  1  0.11532139  0.16106400  0.22699839  1  0.022989  0  -0.042266  -0.263254  0  3.957302  0
C  C138  1  0.23059671  0.09051977  0.66354469  1  0.446529  0  0.143039  0.312738  0  3.89106  0
C  C139  1  0.90948192  0.76940270  0.83645522  1  0.446521  0  0.143098  0.312802  0  3.891036  0
C  C140  1  0.76940369  0.90948089  0.33645478  1  0.446533  0  0.143034  0.312659  0  3.891077  0
C  C141  1  0.09051914  0.23059727  0.16354488  1  0.446558  0  0.143027  0.312641  0  3.891037  0
C  C142  1  0.22293402  0.05874853  0.57997001  1  -0.103195  0  -0.236774  -0.464501  0  3.947229  0
C  C143  1  0.94125196  0.77706610  0.92002931  1  -0.103251  0  -0.236817  -0.464531  0  3.947252  0
C  C144  1  0.77706569  0.94125149  0.42003086  1  -0.103245  0  -0.236729  -0.464401  0  3.94713  0
C  C145  1  0.05874844  0.22293322  0.07996968  1  -0.103246  0  -0.236708  -0.464405  0  3.94721  0
C  C146  1  0.20271068  0.14163207  0.79469247  1  -0.026126  0  0.005915  0.119304  0  3.921018  0
C  C147  1  0.85836747  0.79728984  0.70530820  1  -0.026126  0  0.005898  0.119283  0  3.92096  0
C  C148  1  0.79728971  0.85836792  0.20530770  1  -0.026111  0  0.005927  0.119296  0  3.921058  0
C  C149  1  0.14163292  0.20271015  0.29469134  1  -0.026255  0  0.00588  0.11928  0  3.921074  0
C  C150  1  0.15593177  0.17970608  0.87142597  1  -0.030463  0  -0.243365  -0.410435  0  3.984076  0
C  C151  1  0.82029306  0.84406929  0.62857409  1  -0.030458  0  -0.24335  -0.410391  0  3.984027  0
C  C152  1  0.84406862  0.82029458  0.12857350  1  -0.030177  0  -0.243352  -0.410372  0  3.984075  0
C  C153  1  0.17970666  0.15593141  0.37142607  1  -0.030324  0  -0.243351  -0.410393  0  3.98406  0
C  C154  1  0.29754366  0.12864995  0.77209867  1  0.358409  0  0.082834  0.05361  0  4.016483  0
C  C155  1  0.87135024  0.70245733  0.72790122  1  0.358491  0  0.082866  0.05365  0  4.016534  0
C  C156  1  0.70245606  0.87135142  0.22790079  1  0.358488  0  0.082806  0.053593  0  4.016587  0
C  C157  1  0.12864947  0.29754269  0.27209903  1  0.358407  0  0.082852  0.05358  0  4.016586  0
C  C158  1  0.37090274  0.13708476  0.81793669  1  -0.016611  0  0.036401  0.013431  0  3.95708  0
C  C159  1  0.86291647  0.62909657  0.68206388  1  -0.01675  0  0.036354  0.01337  0  3.957057  0
C  C160  1  0.62909697  0.86291593  0.18206348  1  -0.016794  0  0.036361  0.013333  0  3.957163  0
C  C161  1  0.13708459  0.37090272  0.31793630  1  -0.016667  0  0.036334  0.013333  0  3.957113  0
C  C162  1  0.45967750  0.12010969  0.78233383  1  0.343878  0  0.083427  0.055818  0  4.015864  0
C  C163  1  0.87989108  0.54032194  0.71766549  1  0.343956  0  0.083402  0.055819  0  4.015847  0
C  C164  1  0.54032289  0.87989030  0.21766509  1  0.343945  0  0.083461  0.055938  0  4.015738  0
C  C165  1  0.12010931  0.45967738  0.28233413  1  0.343952  0  0.083455  0.055854  0  4.015829  0
C  C166  1  0.35289113  0.16272554  0.90579346  1  -0.013957  0  -0.003948  0.07607  0  4.008428  0
C  C167  1  0.83727550  0.64710775  0.59420719  1  -0.013839  0  -0.003972  0.075996  0  4.008415  0
C  C168  1  0.64710859  0.83727448  0.09420679  1  -0.013908  0  -0.003965  0.076038  0  4.008439  0
C  C169  1  0.16272556  0.35289154  0.40579298  1  -0.013957  0  -0.003936  0.07613  0  4.008379  0
C  C170  1  0.32596360  0.09732553  0.97355847  1  -0.069755  0  -0.087626  -0.129409  0  3.958553  0
C  C171  1  0.90267582  0.67403588  0.52644144  1  -0.069769  0  -0.087603  -0.12939  0  3.958551  0
C  C172  1  0.67403544  0.90267520  0.02644114  1  -0.069601  0  -0.087632  -0.12945  0  3.958519  0
C  C173  1  0.09732525  0.32596476  0.47355796  1  -0.069611  0  -0.087636  -0.1295  0  3.958578  0
C  C174  1  0.30673055  0.12113186  0.05604515  1  -0.079584  0  -0.086655  -0.0672  0  3.980479  0
C  C175  1  0.87886928  0.69326887  0.44395508  1  -0.079596  0  -0.086614  -0.067095  0  3.980443  0
C  C176  1  0.69326917  0.87886883  0.94395502  1  -0.079599  0  -0.086627  -0.0671  0  3.980432  0
C  C177  1  0.12113044  0.30673183  0.55604446  1  -0.079586  0  -0.086644  -0.067127  0  3.980437  0
C  C178  1  0.31287137  0.21087805  0.07090208  1  -0.048006  0  -0.089594  -0.081046  0  4.001848  0
C  C179  1  0.78912198  0.68712813  0.42909891  1  -0.048006  0  -0.089579  -0.081046  0  4.001853  0
C  C180  1  0.68712834  0.78912197  0.92909816  1  -0.048004  0  -0.089613  -0.081106  0  4.001858  0
C  C181  1  0.21087774  0.31287256  0.57090125  1  -0.047982  0  -0.089592  -0.081054  0  4.00178  0
C  C182  1  0.33937725  0.27646027  0.00351621  1  -0.00258  0  -0.090289  -0.082262  0  4.034223  0
C  C183  1  0.72354048  0.66062274  0.49648341  1  -0.002734  0  -0.090246  -0.082142  0  4.034203  0
C  C184  1  0.66062246  0.72353975  0.99648340  1  -0.002592  0  -0.090246  -0.082196  0  4.034276  0
C  C185  1  0.27645992  0.33937861  0.50351598  1  -0.00276  0  -0.090252  -0.082211  0  4.034223  0
C  C186  1  0.36026988  0.25234625  0.92127502  1  -0.073662  0  -0.089047  -0.139438  0  3.99807  0
C  C187  1  0.74765392  0.63972903  0.57872638  1  -0.073593  0  -0.089092  -0.13953  0  3.998069  0
C  C188  1  0.63972984  0.74765309  0.07872530  1  -0.07392  0  -0.089085  -0.139478  0  3.99811  0
C  C189  1  0.25234647  0.36027028  0.42127450  1  -0.073499  0  -0.089074  -0.139515  0  3.998093  0
C  C190  1  0.54384971  0.12310617  0.81635284  1  0.03752  0  0.005919  0.125894  0  3.91214  0
C  C191  1  0.87689578  0.45614931  0.68364637  1  0.03751  0  0.005957  0.125887  0  3.912132  0
C  C192  1  0.45615001  0.87689385  0.18364678  1  0.037499  0  0.005901  0.125833  0  3.912166  0
C  C193  1  0.12310664  0.54384993  0.31635303  1  0.037514  0  0.00587  0.125809  0  3.91211  0
C  C194  1  0.55824396  0.13913121  0.90431826  1  -0.042208  0  -0.245864  -0.417434  0  3.985964  0
C  C195  1  0.86086989  0.44175644  0.59568151  1  -0.04223  0  -0.245873  -0.417427  0  3.985965  0
C  C196  1  0.44175644  0.86086878  0.09568191  1  -0.042213  0  -0.245858  -0.417427  0  3.985979  0
C  C197  1  0.13913118  0.55824353  0.40431858  1  -0.042206  0  -0.245819  -0.417335  0  3.985886  0
C  C198  1  0.61150684  0.10758392  0.74980762  1  0.007635  0  -0.03875  -0.246852  0  3.931182  0
C  C199  1  0.89241645  0.38849254  0.75019233  1  0.007715  0  -0.03875  -0.246791  0  3.93112  0
C  C200  1  0.38849356  0.89241540  0.25019200  1  0.007727  0  -0.038747  -0.246803  0  3.931217  0
C  C201  1  0.10758530  0.61150672  0.24980778  1  0.007724  0  -0.03871  -0.246786  0  3.931205  0
C  C202  1  0.71042553  0.11115426  0.75010884  1  1.550189  0  0.214316  0.623225  0  4.185069  0
C  C203  1  0.88884568  0.28957283  0.74989060  1  1.550204  0  0.214229  0.623099  0  4.185279  0
C  C204  1  0.28957351  0.88884443  0.24989162  1  1.550219  0  0.214237  0.623113  0  4.185267  0
C  C205  1  0.11115607  0.71042644  0.25010887  1  1.550218  0  0.214303  0.623231  0  4.185117  0
C  C206  1  0.56824594  0.09207067  0.67776041  1  0.465369  0  0.151682  0.330215  0  3.856409  0
C  C207  1  0.90793004  0.43175302  0.82223955  1  0.465292  0  0.151631  0.330114  0  3.856446  0
C  C208  1  0.43175378  0.90792935  0.32223983  1  0.4653  0  0.151686  0.330191  0  3.85646  0
C  C209  1  0.09207103  0.56824694  0.17775992  1  0.465301  0  0.151638  0.330122  0  3.856454  0
C  C210  1  0.61013980  0.07000994  0.59295362  1  -0.053107  0  -0.229808  -0.455243  0  3.942137  0
C  C211  1  0.92999006  0.38985937  0.90704700  1  -0.053099  0  -0.229762  -0.455108  0  3.942097  0
C  C212  1  0.38985991  0.92999008  0.40704662  1  -0.053115  0  -0.229799  -0.455219  0  3.942117  0
C  C213  1  0.07000898  0.61014202  0.09295379  1  -0.053045  0  -0.229778  -0.455218  0  3.941997  0
N  N214  1  0.84516016  0.11462714  0.97094061  1  -1.272893  0  -0.327504  -0.225303  0  3.529988  0
N  N215  1  0.88537392  0.15483875  0.52905924  1  -1.272718  0  -0.32751  -0.225308  0  3.529975  0
N  N216  1  0.15483888  0.88537426  0.02905893  1  -1.27271  0  -0.327528  -0.225402  0  3.529938  0
N  N217  1  0.11462714  0.84516054  0.47094094  1  -1.272899  0  -0.32747  -0.225232  0  3.530013  0
N  N218  1  0.31145773  0.09864015  0.69139599  1  -1.438006  0  -0.231906  -0.331544  0  3.637836  0
N  N219  1  0.90136013  0.68854295  0.80860328  1  -1.438005  0  -0.231909  -0.331549  0  3.637911  0
N  N220  1  0.68854266  0.90136052  0.30860348  1  -1.438009  0  -0.231883  -0.331517  0  3.63793  0
N  N221  1  0.09863891  0.31145778  0.19139633  1  -1.438041  0  -0.231866  -0.331422  0  3.63779  0
N  N222  1  0.47799598  0.09857142  0.69848903  1  -1.41851  0  -0.226314  -0.319733  0  3.616103  0
N  N223  1  0.90142927  0.52200313  0.80151158  1  -1.418484  0  -0.226293  -0.319715  0  3.616158  0
N  N224  1  0.52200373  0.90142927  0.30151114  1  -1.418491  0  -0.226301  -0.319726  0  3.616069  0
N  N225  1  0.09857112  0.47799619  0.19848867  1  -1.41847  0  -0.226291  -0.319675  0  3.616076  0
O  O226  1  0.01358280  0.11001182  0.79674344  1  -1.1784  0  -0.317754  -0.561058  0  2.352603  0
O  O227  1  0.88998854  0.98641643  0.70325608  1  -1.178447  0  -0.317763  -0.561115  0  2.352679  0
O  O228  1  0.98641692  0.88998820  0.20325680  1  -1.178402  0  -0.317756  -0.561068  0  2.352637  0
O  O229  1  0.11001185  0.01358289  0.29674354  1  -1.178422  0  -0.317771  -0.561095  0  2.352633  0
O  O230  1  0.03274022  0.10862488  0.65350815  1  -1.161211  0  -0.319285  -0.547024  0  2.321665  0
O  O231  1  0.89137545  0.96725890  0.84649075  1  -1.161189  0  -0.319217  -0.546962  0  2.321681  0
O  O232  1  0.96725949  0.89137447  0.34649154  1  -1.161221  0  -0.319208  -0.546935  0  2.321789  0
O  O233  1  0.10862494  0.03273975  0.15350894  1  -1.161193  0  -0.319251  -0.546988  0  2.321684  0
O  O234  1  0.74353850  0.09451045  0.82077833  1  -1.176315  0  -0.312633  -0.554381  0  2.351461  0
O  O235  1  0.90548858  0.25646088  0.67922172  1  -1.176343  0  -0.312632  -0.554348  0  2.351529  0
O  O236  1  0.25646122  0.90548890  0.17922199  1  -1.17631  0  -0.31265  -0.554376  0  2.351486  0
O  O237  1  0.09451114  0.74353847  0.32077797  1  -1.176319  0  -0.312656  -0.5544  0  2.351519  0
O  O238  1  0.75641318  0.13188984  0.67813051  1  -1.175168  0  -0.316481  -0.560121  0  2.365233  0
O  O239  1  0.86810826  0.24358686  0.82186895  1  -1.175173  0  -0.316406  -0.560063  0  2.365378  0
O  O240  1  0.24358721  0.86810813  0.32186926  1  -1.175206  0  -0.316409  -0.56006  0  2.365389  0
O  O241  1  0.13189213  0.75641381  0.17813052  1  -1.175267  0  -0.316452  -0.560121  0  2.365316  0
F  F242  1  0.41287506  0.98880980  0.62433318  1  -0.824823  0  -0.152028  -0.399  0  1.180069  0
F  F243  1  0.01119092  0.58712414  0.87566646  1  -0.82484  0  -0.152015  -0.398976  0  1.180125  0
F  F244  1  0.58712466  0.01119022  0.37566644  1  -0.824827  0  -0.152005  -0.398968  0  1.180142  0
F  F245  1  0.98880880  0.41287587  0.12433378  1  -0.824849  0  -0.152023  -0.398989  0  1.18014  0
F  F246  1  0.41542764  0.13815314  0.56437333  1  -0.831026  0  -0.153746  -0.399441  0  1.178826  0
F  F247  1  0.86184704  0.58457323  0.93562654  1  -0.830995  0  -0.153742  -0.399429  0  1.178846  0
F  F248  1  0.58457410  0.86184613  0.43562552  1  -0.830981  0  -0.153712  -0.399414  0  1.178886  0
F  F249  1  0.13815268  0.41542747  0.06437300  1  -0.831013  0  -0.15375  -0.399436  0  1.178849  0
