# generated using pymatgen
data_AlH36C33(NO2)3
_symmetry_space_group_name_H-M   'P 1'
_cell_length_a   3.93295479
_cell_length_b   28.16341848
_cell_length_c   28.15641639
_cell_angle_alpha   119.98941357
_cell_angle_beta   89.78195783
_cell_angle_gamma   90.30315009
_symmetry_Int_Tables_number   1
_chemical_formula_structural   AlH36C33(NO2)3
_chemical_formula_sum   'Al2 H72 C66 N6 O12'
_cell_volume   2701.17164782
_cell_formula_units_Z   2
loop_
 _symmetry_equiv_pos_site_id
 _symmetry_equiv_pos_as_xyz
  1  'x, y, z'
loop_
 _atom_site_type_symbol
 _atom_site_label
 _atom_site_symmetry_multiplicity
 _atom_site_fract_x
 _atom_site_fract_y
 _atom_site_fract_z
 _atom_site_occupancy
 _atom_site_pbe_bader_charge
 _atom_site_pbe_bader_spin_density
 _atom_site_pbe_cm5_charge
 _atom_site_pbe_ddec_charge
 _atom_site_pbe_ddec_spin_density
 _atom_site_pbe_ddec_sum_bond_order
 _atom_site_pbe_magmom
Al  Al0  1  0.01699236  0.50025278  0.50005906  1  2.501162  0  0.422511  1.582355  0  2.577886  0
Al  Al1  1  0.98175995  0.16682471  0.83333924  1  2.501509  0  0.420852  1.580938  0  2.582626  0
H  H2  1  0.67809606  0.34635919  0.87969968  1  0.045159  0  0.09195  0.127535  0  1.007053  0
H  H3  1  0.31249485  0.30582672  0.87028421  1  0.045207  0  0.096929  0.137369  0  1.015994  0
H  H4  1  0.27580835  0.36849060  0.87032090  1  0.042803  0  0.088495  0.119615  0  1.012859  0
H  H5  1  0.30087220  0.41320645  0.80920015  1  0.025657  0  0.09135  0.129696  0  1.002672  0
H  H6  1  0.69508511  0.40856631  0.77706155  1  0.062018  0  0.091395  0.117726  0  1.065977  0
H  H7  1  0.67842778  0.40739970  0.83992909  1  0.016567  0  0.087204  0.119868  0  1.013963  0
H  H8  1  0.33200512  0.13322302  0.66055634  1  0.027467  0  0.091174  0.126482  0  1.009593  0
H  H9  1  0.67622483  0.14074544  0.70395698  1  0.049921  0  0.096937  0.137331  0  1.026526  0
H  H10  1  0.75013143  0.14249153  0.64286560  1  0.034778  0  0.089004  0.120833  0  1.01478  0
H  H11  1  0.77959244  0.20650726  0.60099026  1  0.016013  0  0.092289  0.133275  0  0.999687  0
H  H12  1  0.37815325  0.23479314  0.60095271  1  0.082262  0  0.090309  0.112719  0  1.101319  0
H  H13  1  0.40248419  0.17281621  0.60287270  1  0.034575  0  0.08779  0.12162  0  1.017148  0
H  H14  1  0.23083341  0.25383755  0.52166147  1  0.040807  0  0.092432  0.130279  0  1.00478  0
H  H15  1  0.63447227  0.25468690  0.54941293  1  0.025111  0  0.093291  0.126187  0  1.039501  0
H  H16  1  0.60450373  0.25811093  0.48849694  1  0.022751  0  0.088456  0.120946  0  1.01608  0
H  H17  1  0.69155640  0.32403784  0.45367190  1  0.053943  0  0.091634  0.12829  0  1.008292  0
H  H18  1  0.33321283  0.36520620  0.46250292  1  0.046667  0  0.097218  0.137504  0  1.023851  0
H  H19  1  0.27994674  0.30111955  0.45896279  1  0.019044  0  0.088674  0.120036  0  1.013608  0
H  H20  1  0.67351827  0.45694864  0.73607956  1  0.031832  0  0.090389  0.124767  0  1.019093  0
H  H21  1  0.28011727  0.42335387  0.72629799  1  0.083225  0  0.095284  0.126994  0  1.03964  0
H  H22  1  0.30094049  0.48710632  0.72742896  1  0.014513  0  0.085931  0.118725  0  1.015657  0
H  H23  1  0.31358998  0.53187469  0.67319759  1  0.023297  0  0.091707  0.127813  0  1.008582  0
H  H24  1  0.68443885  0.52602230  0.63506886  1  0.054534  0  0.097018  0.136454  0  1.019125  0
H  H25  1  0.71356504  0.52190579  0.69563834  1  0.019608  0  0.088916  0.121262  0  1.011708  0
H  H26  1  0.66974935  0.03398712  0.65380592  1  0.05739  0  0.091913  0.128017  0  1.007035  0
H  H27  1  0.30544515  0.06467627  0.69446939  1  0.035229  0  0.097148  0.137731  0  1.016072  0
H  H28  1  0.26690383  0.00202502  0.63180908  1  0.031128  0  0.088778  0.120396  0  1.012524  0
H  H29  1  0.29636089  0.89640883  0.58665735  1  0.026732  0  0.091192  0.129237  0  1.002577  0
H  H30  1  0.69002105  0.86939228  0.59152828  1  0.076341  0  0.091129  0.116664  0  1.06704  0
H  H31  1  0.67449327  0.93346684  0.59285002  1  0.013072  0  0.087289  0.119383  0  1.014086  0
H  H32  1  0.32929762  0.02742924  0.86691932  1  0.033196  0  0.091189  0.126523  0  1.00958  0
H  H33  1  0.67474045  0.06352298  0.85937181  1  0.064445  0  0.097173  0.137612  0  1.025906  0
H  H34  1  0.74664064  0.00076800  0.85765221  1  0.023014  0  0.089035  0.121176  0  1.014212  0
H  H35  1  0.77349425  0.89268775  0.79132102  1  0.028715  0  0.092545  0.133944  0  0.999606  0
H  H36  1  0.36283092  0.86695954  0.76559146  1  0.095329  0  0.090634  0.113418  0  1.096895  0
H  H37  1  0.40977705  0.93045871  0.82764242  1  -0.00369  0  0.087739  0.122279  0  1.017867  0
H  H38  1  0.23642773  0.76806752  0.74631714  1  0.019086  0  0.092419  0.130326  0  1.004487  0
H  H39  1  0.63926439  0.79559768  0.74544163  1  0.057916  0  0.093415  0.125453  0  1.041295  0
H  H40  1  0.61043120  0.73132204  0.74232794  1  0.021984  0  0.08813  0.120253  0  1.015827  0
H  H41  1  0.69680959  0.63029383  0.67624435  1  0.040399  0  0.091574  0.128158  0  1.008527  0
H  H42  1  0.33663863  0.59769481  0.63531019  1  0.079039  0  0.097147  0.137354  0  1.023655  0
H  H43  1  0.28616389  0.65823010  0.69941970  1  0.030624  0  0.08867  0.120053  0  1.013808  0
H  H44  1  0.67614508  0.77958923  0.54316155  1  0.038291  0  0.090694  0.12521  0  1.018615  0
H  H45  1  0.28176965  0.80262638  0.57634815  1  0.056241  0  0.09568  0.127589  0  1.03954  0
H  H46  1  0.30481431  0.73995802  0.51265666  1  0.021077  0  0.085802  0.118254  0  1.015881  0
H  H47  1  0.31647595  0.64131101  0.46811831  1  0.032123  0  0.092089  0.128085  0  1.008177  0
H  H48  1  0.68676672  0.60948806  0.47417136  1  0.065653  0  0.097284  0.137175  0  1.017848  0
H  H49  1  0.71675866  0.67422478  0.47834898  1  0.016374  0  0.088573  0.120919  0  1.011779  0
H  H50  1  0.67249141  0.11980495  0.96560687  1  0.056318  0  0.091876  0.127921  0  1.007209  0
H  H51  1  0.30757498  0.12921619  0.93485557  1  0.021256  0  0.096993  0.137002  0  1.01739  0
H  H52  1  0.26980733  0.12878162  0.99734997  1  0.022917  0  0.088765  0.119816  0  1.013012  0
H  H53  1  0.29764145  0.18863515  0.10274139  1  0.033536  0  0.091215  0.129159  0  1.002152  0
H  H54  1  0.68991058  0.22134619  0.13037863  1  0.080603  0  0.091558  0.117709  0  1.066652  0
H  H55  1  0.67701059  0.15888084  0.06599990  1  0.029332  0  0.086582  0.118728  0  1.015094  0
H  H56  1  0.32100852  0.33875818  0.97252034  1  0.045205  0  0.09149  0.127354  0  1.009066  0
H  H57  1  0.66982354  0.29627929  0.93712448  1  0.067031  0  0.097013  0.137362  0  1.025916  0
H  H58  1  0.73713016  0.35755223  0.99988560  1  0.014801  0  0.089214  0.12141  0  1.012855  0
H  H59  1  0.74181945  0.40000332  0.11488143  1  0.052295  0  0.092782  0.131573  0  1.00751  0
H  H60  1  0.31214729  0.39656743  0.13037662  1  0.082287  0  0.091414  0.116374  0  1.077561  0
H  H61  1  0.42193597  0.39686427  0.06910336  1  0.036083  0  0.086848  0.121755  0  1.020478  0
H  H62  1  0.24115016  0.47985624  0.23416166  1  0.053047  0  0.092089  0.130559  0  1.003835  0
H  H63  1  0.63258765  0.44924547  0.20362666  1  0.093369  0  0.092387  0.123049  0  1.051247  0
H  H64  1  0.62729835  0.51037597  0.26834553  1  0.003906  0  0.087625  0.11975  0  1.01619  0
H  H65  1  0.69626993  0.54635652  0.36981947  1  0.038994  0  0.091478  0.127844  0  1.008654  0
H  H66  1  0.33525713  0.53742006  0.40209188  1  0.063534  0  0.097144  0.137295  0  1.02314  0
H  H67  1  0.28671562  0.54056477  0.34128170  1  0.025122  0  0.088685  0.120235  0  1.013832  0
H  H68  1  0.68300717  0.26401288  0.22024550  1  0.036419  0  0.090815  0.125847  0  1.01897  0
H  H69  1  0.28547296  0.27326857  0.19794136  1  0.067332  0  0.095657  0.127727  0  1.040337  0
H  H70  1  0.31624383  0.27225474  0.26060489  1  0.025882  0  0.085574  0.118148  0  1.017032  0
H  H71  1  0.31855055  0.32686258  0.35914568  1  0.03808  0  0.091828  0.127624  0  1.008597  0
H  H72  1  0.68784652  0.36556712  0.39121725  1  0.057796  0  0.096957  0.136756  0  1.018433  0
H  H73  1  0.71985254  0.30490886  0.32668212  1  0.0189  0  0.088871  0.121219  0  1.011636  0
C  C74  1  0.51696658  0.45967109  0.41480574  1  1.538026  0  0.278853  0.668876  0  4.042726  0
C  C75  1  0.51406492  0.45551685  0.54058203  1  1.518615  0  0.27872  0.669536  0  4.040579  0
C  C76  1  0.51748924  0.58545315  0.54482280  1  1.52041  0  0.278624  0.669445  0  4.04137  0
C  C77  1  0.48658758  0.21335042  0.79486513  1  1.537902  0  0.279476  0.670046  0  4.044032  0
C  C78  1  0.48260415  0.08183164  0.78691299  1  1.520642  0  0.279243  0.668737  0  4.041826  0
C  C79  1  0.48274694  0.20521372  0.91834384  1  1.587667  0  0.279004  0.668329  0  4.044054  0
C  C80  1  0.50040828  0.24514471  0.76547147  1  -0.15018  0  -0.011384  -0.147159  0  3.92652  0
C  C81  1  0.52728455  0.21651708  0.70794058  1  0.080489  0  -0.006279  0.097343  0  3.930396  0
C  C82  1  0.51969166  0.24557216  0.67938511  1  -0.011342  0  -0.002201  0.05931  0  3.88847  0
C  C83  1  0.52765806  0.30382025  0.70995665  1  0.388568  0  0.086271  0.045028  0  3.974974  0
C  C84  1  0.52548570  0.33209875  0.76814247  1  -0.009855  0  -0.003461  0.054293  0  3.90923  0
C  C85  1  0.49009799  0.30261798  0.79592297  1  0.130742  0  -0.00818  0.095401  0  3.943276  0
C  C86  1  0.47901130  0.33353742  0.56225548  1  -0.065475  0  -0.004659  0.04981  0  3.917317  0
C  C87  1  0.47520644  0.36011767  0.62033591  1  0.38971  0  0.086333  0.04667  0  3.995775  0
C  C88  1  0.48070063  0.41809709  0.65264603  1  0.027442  0  -0.00215  0.056875  0  3.900491  0
C  C89  1  0.51116075  0.44894409  0.62601344  1  0.037705  0  -0.006409  0.098493  0  3.927965  0
C  C90  1  0.50430413  0.42218923  0.56845637  1  -0.088706  0  -0.012065  -0.149562  0  3.921973  0
C  C91  1  0.48084881  0.36474004  0.53613548  1  0.081995  0  -0.00734  0.097678  0  3.941976  0
C  C92  1  0.49518212  0.02064058  0.75506252  1  0.093136  0  -0.010995  -0.147609  0  3.923206  0
C  C93  1  0.52328408  0.99167184  0.78359600  1  0.086418  0  -0.006738  0.097158  0  3.928588  0
C  C94  1  0.51603064  0.93406604  0.75440066  1  -0.099282  0  -0.001997  0.059536  0  3.888824  0
C  C95  1  0.52425186  0.90653851  0.69614026  1  0.432985  0  0.08634  0.045409  0  3.97624  0
C  C96  1  0.52031520  0.93655208  0.66798538  1  0.049559  0  -0.003689  0.054124  0  3.908368  0
C  C97  1  0.48362344  0.99371373  0.69757044  1  -0.112961  0  -0.007158  0.096916  0  3.941686  0
C  C98  1  0.48366790  0.72912480  0.66666163  1  -0.017925  0  -0.003943  0.050698  0  3.91602  0
C  C99  1  0.47926715  0.76052960  0.63997508  1  0.379347  0  0.086913  0.047423  0  3.99622  0
C  C100  1  0.48358211  0.73474778  0.58195397  1  -0.078396  0  -0.00249  0.056814  0  3.900281  0
C  C101  1  0.51405799  0.67732416  0.55119704  1  0.135499  0  -0.006076  0.098135  0  3.928302  0
C  C102  1  0.50797839  0.64661872  0.57808021  1  0.026528  0  -0.011865  -0.149511  0  3.921903  0
C  C103  1  0.48520032  0.67182094  0.63556432  1  -0.035222  0  -0.00724  0.098103  0  3.940262  0
C  C104  1  0.49408867  0.23431041  0.97953099  1  -0.058449  0  -0.010623  -0.146532  0  3.923978  0
C  C105  1  0.51780867  0.29190727  0.00876445  1  0.021147  0  -0.005971  0.097272  0  3.925925  0
C  C106  1  0.50850108  0.32001382  0.06638353  1  -0.009533  0  -0.000748  0.061879  0  3.884929  0
C  C107  1  0.52198612  0.28900604  0.09365851  1  0.450843  0  0.086592  0.045946  0  3.976142  0
C  C108  1  0.52036902  0.23082107  0.06333484  1  -0.027465  0  -0.002172  0.055976  0  3.906642  0
C  C109  1  0.48411774  0.20343348  0.00615890  1  -0.059015  0  -0.008034  0.095539  0  3.941538  0
C  C110  1  0.48900006  0.43744294  0.27095563  1  -0.021996  0  -0.002737  0.052982  0  3.914898  0
C  C111  1  0.48639715  0.37931295  0.23953332  1  0.306989  0  0.086998  0.047862  0  3.993707  0
C  C112  1  0.48856663  0.34718346  0.26550256  1  -0.021654  0  -0.00154  0.058298  0  3.895345  0
C  C113  1  0.51632636  0.37402623  0.32298243  1  0.067609  0  -0.006572  0.096937  0  3.928152  0
C  C114  1  0.50881262  0.43159937  0.35359741  1  -0.025218  0  -0.011084  -0.147567  0  3.921434  0
C  C115  1  0.48695689  0.46372825  0.32827814  1  0.051554  0  -0.007822  0.096244  0  3.942206  0
C  C116  1  0.43663809  0.33224035  0.85710975  1  -0.07793  0  -0.23895  -0.403119  0  3.961172  0
C  C117  1  0.55252683  0.39359522  0.80042512  1  -0.059616  0  -0.242612  -0.407261  0  3.993462  0
C  C118  1  0.57336444  0.15516540  0.67734244  1  -0.045557  0  -0.240921  -0.407253  0  3.962779  0
C  C119  1  0.51891975  0.21324280  0.61762515  1  -0.102266  0  -0.247977  -0.415165  0  3.993846  0
C  C120  1  0.48769301  0.27188061  0.52870806  1  -0.008012  0  -0.240176  -0.405185  0  3.989248  0
C  C121  1  0.44490773  0.33740515  0.47473675  1  -0.082684  0  -0.240552  -0.406361  0  3.963856  0
C  C122  1  0.43120305  0.44798790  0.71376537  1  -0.091127  0  -0.24161  -0.408987  0  4.000572  0
C  C123  1  0.55773501  0.51027506  0.65913770  1  -0.018844  0  -0.240393  -0.405618  0  3.962466  0
C  C124  1  0.42874649  0.02524203  0.66800264  1  -0.065884  0  -0.239862  -0.405348  0  3.961914  0
C  C125  1  0.54777216  0.90754873  0.60649986  1  -0.072174  0  -0.242626  -0.40582  0  3.993029  0
C  C126  1  0.57047958  0.02243745  0.84496935  1  -0.053047  0  -0.240967  -0.407855  0  3.961289  0
C  C127  1  0.51422207  0.90436600  0.78645837  1  -0.080829  0  -0.248176  -0.41665  0  3.995211  0
C  C128  1  0.49320815  0.75743102  0.72834095  1  -0.016105  0  -0.241235  -0.405808  0  3.989732  0
C  C129  1  0.44975425  0.63781082  0.66302655  1  -0.11124  0  -0.240738  -0.406616  0  3.963256  0
C  C130  1  0.43384165  0.76577647  0.55191302  1  -0.046872  0  -0.241825  -0.408902  0  3.999842  0
C  C131  1  0.56045571  0.64913427  0.48985271  1  -0.067039  0  -0.240417  -0.405605  0  3.960925  0
C  C132  1  0.43093176  0.14223715  0.97431969  1  -0.019465  0  -0.23914  -0.403416  0  3.961128  0
C  C133  1  0.54898650  0.19807818  0.09203076  1  -0.101111  0  -0.242323  -0.406138  0  3.993825  0
C  C134  1  0.56305152  0.32267898  0.97802436  1  -0.053447  0  -0.241191  -0.408483  0  3.962601  0
C  C135  1  0.49394998  0.38165341  0.09661853  1  -0.115543  0  -0.245463  -0.412139  0  3.995519  0
C  C136  1  0.49872740  0.47096441  0.24281914  1  -0.077419  0  -0.241525  -0.407146  0  3.994245  0
C  C137  1  0.44972042  0.52511098  0.36208316  1  -0.052169  0  -0.24092  -0.406277  0  3.962433  0
C  C138  1  0.44052116  0.28602450  0.23460028  1  -0.041251  0  -0.241974  -0.410095  0  4.002506  0
C  C139  1  0.56244590  0.34118823  0.35146180  1  -0.069535  0  -0.240314  -0.405302  0  3.961313  0
N  N140  1  0.56842184  0.33886088  0.68758085  1  -0.468345  0  -0.134694  -0.087548  0  3.284354  0
N  N141  1  0.43479634  0.32413820  0.64138952  1  -0.482097  0  -0.138592  -0.092292  0  3.29331  0
N  N142  1  0.56586953  0.84926615  0.66092356  1  -0.48739  0  -0.13486  -0.087826  0  3.286513  0
N  N143  1  0.43940151  0.81744603  0.67599361  1  -0.490748  0  -0.139844  -0.093535  0  3.295785  0
N  N144  1  0.56092251  0.31061048  0.15083215  1  -0.470925  0  -0.139226  -0.093404  0  3.292188  0
N  N145  1  0.45218666  0.35867468  0.18264200  1  -0.498361  0  -0.142394  -0.096577  0  3.300779  0
O  O146  1  0.75524683  0.56046772  0.55410970  1  -1.261432  0  -0.232964  -0.592389  0  2.379104  0
O  O147  1  0.75585035  0.49406748  0.43984040  1  -1.261282  0  -0.232692  -0.591926  0  2.37918  0
O  O148  1  0.75275309  0.44628346  0.50616774  1  -1.252387  0  -0.232829  -0.593852  0  2.382991  0
O  O149  1  0.28510822  0.56118051  0.50890425  1  -1.262073  0  -0.235736  -0.599306  0  2.383906  0
O  O150  1  0.28173285  0.49127461  0.55225729  1  -1.24583  0  -0.235541  -0.597627  0  2.378795  0
O  O151  1  0.28283688  0.44806020  0.43900246  1  -1.261167  0  -0.235965  -0.598151  0  2.381614  0
O  O152  1  0.71380424  0.16989698  0.89184435  1  -1.259504  0  -0.236167  -0.599607  0  2.38403  0
O  O153  1  0.71762111  0.22228974  0.83022872  1  -1.258743  0  -0.235962  -0.599776  0  2.381438  0
O  O154  1  0.71477670  0.10837094  0.77797029  1  -1.258112  0  -0.236104  -0.599789  0  2.383093  0
O  O155  1  0.24407293  0.21724369  0.89563839  1  -1.251924  0  -0.231702  -0.590567  0  2.38399  0
O  O156  1  0.24217535  0.10446538  0.82154188  1  -1.25468  0  -0.23167  -0.589131  0  2.379534  0
O  O157  1  0.24601155  0.17860173  0.78289470  1  -1.258872  0  -0.232152  -0.591371  0  2.383318  0
