# generated using pymatgen
data_FeH16(C12N5)2
_symmetry_space_group_name_H-M   'P 1'
_cell_length_a   11.79825612
_cell_length_b   18.96597613
_cell_length_c   18.96055342
_cell_angle_alpha   115.81338063
_cell_angle_beta   101.96731605
_cell_angle_gamma   101.98994486
_symmetry_Int_Tables_number   1
_chemical_formula_structural   FeH16(C12N5)2
_chemical_formula_sum   'Fe3 H48 C72 N30'
_cell_volume   3515.89278267
_cell_formula_units_Z   3
loop_
 _symmetry_equiv_pos_site_id
 _symmetry_equiv_pos_as_xyz
  1  'x, y, z'
loop_
 _atom_site_type_symbol
 _atom_site_label
 _atom_site_symmetry_multiplicity
 _atom_site_fract_x
 _atom_site_fract_y
 _atom_site_fract_z
 _atom_site_occupancy
 _atom_site_pbe_bader_charge
 _atom_site_pbe_bader_spin_density
 _atom_site_pbe_cm5_charge
 _atom_site_pbe_ddec_charge
 _atom_site_pbe_ddec_spin_density
 _atom_site_pbe_ddec_sum_bond_order
 _atom_site_pbe_magmom
Fe  Fe0  1  0.00000219  0.50000013  0.50000023  1  1.126197  0  0.803809  0.286374  0  3.800753  0
Fe  Fe1  1  0.49999997  0.49999984  0.99999983  1  1.124163  0  0.801071  0.283867  0  3.795777  0
Fe  Fe2  1  0.50000156  0.00000033  0.50000036  1  1.126983  0  0.800182  0.281659  0  3.797639  0
H  H3  1  0.07871072  0.31609707  0.24527644  1  0.081931  0  0.112834  0.123679  0  0.986631  0
H  H4  1  0.83343463  0.75475473  0.07066007  1  0.058493  0  0.112519  0.123127  0  0.987226  0
H  H5  1  0.76249407  0.92931545  0.68404444  1  0.081746  0  0.112809  0.123342  0  0.986205  0
H  H6  1  0.92129015  0.68390095  0.75472355  1  0.081922  0  0.112834  0.12369  0  0.986637  0
H  H7  1  0.16656050  0.24524391  0.92933680  1  0.058407  0  0.112509  0.123117  0  0.987255  0
H  H8  1  0.23750508  0.07068256  0.31595479  1  0.081769  0  0.112821  0.123368  0  0.9862  0
H  H9  1  0.23939796  0.27462778  0.31441532  1  0.088855  0  0.110827  0.107017  0  0.977906  0
H  H10  1  0.92520067  0.68575644  0.96012478  1  0.081152  0  0.111117  0.105631  0  0.979418  0
H  H11  1  0.96494996  0.03971388  0.72542253  1  0.077046  0  0.110517  0.10668  0  0.979483  0
H  H12  1  0.76060236  0.72537086  0.68558486  1  0.088876  0  0.110838  0.107043  0  0.977899  0
H  H13  1  0.07480027  0.31424345  0.03987549  1  0.081385  0  0.111123  0.105631  0  0.979428  0
H  H14  1  0.03505178  0.96028414  0.27457809  1  0.077046  0  0.110549  0.106689  0  0.979484  0
H  H15  1  0.30216036  0.33614111  0.47000681  1  0.070328  0  0.110022  0.115483  0  0.988443  0
H  H16  1  0.83253145  0.53015468  0.86609590  1  0.087133  0  0.109047  0.11494  0  0.98874  0
H  H17  1  0.96644125  0.13366679  0.66378263  1  0.093304  0  0.109783  0.116535  0  0.987567  0
H  H18  1  0.69784121  0.66386002  0.52999409  1  0.070356  0  0.110022  0.115505  0  0.988399  0
H  H19  1  0.16746862  0.46984520  0.13390427  1  0.086842  0  0.109065  0.114978  0  0.988712  0
H  H20  1  0.03356142  0.86633310  0.33621945  1  0.093301  0  0.109794  0.116534  0  0.987555  0
H  H21  1  0.20353490  0.43447851  0.54931182  1  0.195906  0  0.115549  0.075329  0  1.087233  0
H  H22  1  0.65453793  0.45076967  0.88509770  1  0.152473  0  0.116324  0.076401  0  1.085783  0
H  H23  1  0.76946194  0.11476268  0.56551046  1  0.147079  0  0.115375  0.075454  0  1.086019  0
H  H24  1  0.79646722  0.56552200  0.45068888  1  0.195926  0  0.115544  0.075766  0  1.086821  0
H  H25  1  0.34546184  0.54922959  0.11490057  1  0.152326  0  0.116337  0.076061  0  1.086086  0
H  H26  1  0.23054277  0.88523783  0.43449163  1  0.14695  0  0.115377  0.075063  0  1.086472  0
H  H27  1  0.66896892  0.53331940  0.28405224  1  0.091483  0  0.109309  0.118272  0  1.000854  0
H  H28  1  0.38499172  0.71592813  0.24917126  1  0.086685  0  0.109627  0.1182  0  0.999816  0
H  H29  1  0.13568134  0.75073105  0.46677316  1  0.092065  0  0.109798  0.118903  0  0.999622  0
H  H30  1  0.33102911  0.46667986  0.71594738  1  0.091491  0  0.109275  0.118233  0  1.000813  0
H  H31  1  0.61500756  0.28407362  0.75082856  1  0.087  0  0.109646  0.118245  0  0.999708  0
H  H32  1  0.86432108  0.24927008  0.53323101  1  0.092142  0  0.109768  0.118864  0  0.999604  0
H  H33  1  0.54085463  0.55108352  0.17565502  1  0.133612  0  0.117941  0.084294  0  1.035984  0
H  H34  1  0.36510239  0.82433347  0.37527109  1  0.123252  0  0.119541  0.086798  0  1.035039  0
H  H35  1  0.98974549  0.62448791  0.44888659  1  0.13133  0  0.119415  0.086267  0  1.035341  0
H  H36  1  0.45914278  0.44891450  0.82434293  1  0.133699  0  0.117927  0.08424  0  1.036027  0
H  H37  1  0.63489831  0.17566766  0.62472864  1  0.123236  0  0.119519  0.08678  0  1.03509  0
H  H38  1  0.01025805  0.37551198  0.55111613  1  0.131701  0  0.119404  0.086242  0  1.03537  0
H  H39  1  0.68237261  0.41411037  0.99972584  1  0.096697  0  0.12021  0.089929  0  1.013332  0
H  H40  1  0.68281822  0.00023853  0.41443277  1  0.101019  0  0.119796  0.088643  0  1.014522  0
H  H41  1  0.26829070  0.58576617  0.58611111  1  0.091729  0  0.119345  0.088423  0  1.016  0
H  H42  1  0.31762598  0.58588827  0.00027254  1  0.096733  0  0.120191  0.089953  0  1.013275  0
H  H43  1  0.31718124  0.99976011  0.58556466  1  0.101005  0  0.119797  0.088652  0  1.01454  0
H  H44  1  0.73171260  0.41423496  0.41389107  1  0.091773  0  0.119341  0.088481  0  1.015927  0
H  H45  1  0.81879917  0.39226652  0.10240542  1  0.105361  0  0.109336  0.120405  0  0.996629  0
H  H46  1  0.71674561  0.89755350  0.28997458  1  0.084599  0  0.10878  0.120071  0  0.997894  0
H  H47  1  0.42657050  0.71039533  0.60810933  1  0.094995  0  0.109342  0.120668  0  0.997026  0
H  H48  1  0.18119942  0.60773212  0.89759348  1  0.105357  0  0.109306  0.120356  0  0.996682  0
H  H49  1  0.28325125  0.10244514  0.71002093  1  0.084479  0  0.10877  0.120054  0  0.997916  0
H  H50  1  0.57343199  0.28960767  0.39189567  1  0.094933  0  0.109356  0.120707  0  0.997004  0
C  C51  1  0.96556348  0.42202505  0.32897026  1  0.959453  0  0.194899  0.205905  0  4.102054  0
C  C52  1  0.63674439  0.67104107  0.09297244  1  0.961713  0  0.194121  0.205882  0  4.099906  0
C  C53  1  0.54353471  0.90712532  0.57812980  1  0.98973  0  0.195058  0.207805  0  4.100138  0
C  C54  1  0.03443896  0.57797608  0.67102917  1  0.959566  0  0.194903  0.205963  0  4.102165  0
C  C55  1  0.36325112  0.32896006  0.90702504  1  0.961697  0  0.194177  0.205905  0  4.099831  0
C  C56  1  0.45646741  0.09287519  0.42186985  1  0.989721  0  0.195011  0.207667  0  4.100161  0
C  C57  1  0.83420850  0.45213085  0.26548569  1  0.93901  0  0.189829  0.235361  0  4.100734  0
C  C58  1  0.56893110  0.73451825  0.18661039  1  0.956713  0  0.188369  0.235637  0  4.101282  0
C  C59  1  0.38208801  0.81346915  0.54802608  1  0.919765  0  0.189905  0.23724  0  4.100433  0
C  C60  1  0.16579190  0.54786966  0.73451321  1  0.938923  0  0.189793  0.235284  0  4.100818  0
C  C61  1  0.43106236  0.26548226  0.81338602  1  0.957272  0  0.188395  0.235624  0  4.101261  0
C  C62  1  0.61791244  0.18653322  0.45197785  1  0.920126  0  0.189852  0.237107  0  4.100518  0
C  C63  1  0.05893371  0.39493695  0.36064256  1  0.441593  0  0.120783  0.157868  0  3.973391  0
C  C64  1  0.69837107  0.63938402  0.03415461  1  0.435719  0  0.122352  0.161386  0  3.972681  0
C  C65  1  0.66402222  0.96585118  0.60520629  1  0.428107  0  0.121745  0.159372  0  3.975235  0
C  C66  1  0.94106897  0.60506294  0.63935742  1  0.441548  0  0.120728  0.157774  0  3.97355  0
C  C67  1  0.30162375  0.36061400  0.96584143  1  0.435871  0  0.122454  0.161599  0  3.972532  0
C  C68  1  0.33597872  0.03414871  0.39479346  1  0.427826  0  0.121776  0.159507  0  3.975098  0
C  C69  1  0.11034342  0.34023025  0.31222480  1  0.025125  0  -0.080197  -0.151775  0  3.958585  0
C  C70  1  0.79820001  0.68781663  0.02784624  1  0.059639  0  -0.082832  -0.154869  0  3.96077  0
C  C71  1  0.77016339  0.97210104  0.65989032  1  0.009235  0  -0.082579  -0.152757  0  3.957965  0
C  C72  1  0.88965981  0.65976901  0.68777550  1  0.025064  0  -0.080185  -0.151781  0  3.958655  0
C  C73  1  0.20179653  0.31218138  0.97215107  1  0.059649  0  -0.082849  -0.15489  0  3.960802  0
C  C74  1  0.22983811  0.02789822  0.34010923  1  0.009812  0  -0.082595  -0.152857  0  3.957963  0
C  C75  1  0.19858862  0.31786765  0.35079984  1  -0.066824  0  -0.076587  -0.047606  0  4.024821  0
C  C76  1  0.84800210  0.64932082  0.96696050  1  -0.11902  0  -0.075889  -0.0448  0  4.025566  0
C  C77  1  0.88092404  0.03289721  0.68218698  1  -0.036353  0  -0.07563  -0.0477  0  4.025767  0
C  C78  1  0.80141405  0.68213224  0.64920225  1  -0.06682  0  -0.076571  -0.047594  0  4.024817  0
C  C79  1  0.15199625  0.35067907  0.03303839  1  -0.119244  0  -0.075911  -0.044823  0  4.025584  0
C  C80  1  0.11907715  0.96710143  0.31781279  1  -0.036615  0  -0.07566  -0.047682  0  4.025795  0
C  C81  1  0.23354627  0.35185322  0.43706320  1  0.017653  0  -0.092948  -0.144588  0  4.011793  0
C  C82  1  0.79677647  0.56305785  0.91472067  1  -0.005074  0  -0.091429  -0.143033  0  4.013177  0
C  C83  1  0.88200505  0.08509083  0.64812526  1  -0.017551  0  -0.092527  -0.145441  0  4.012699  0
C  C84  1  0.76645467  0.64814667  0.56293813  1  0.017701  0  -0.092961  -0.14465  0  4.011837  0
C  C85  1  0.20322274  0.43694203  0.08527886  1  -0.004781  0  -0.09143  -0.143039  0  4.013147  0
C  C86  1  0.11799645  0.91490843  0.35187535  1  -0.017516  0  -0.092497  -0.145339  0  4.012609  0
C  C87  1  0.17911905  0.40645283  0.48182690  1  0.333415  0  0.039949  0.068552  0  3.931588  0
C  C88  1  0.69751727  0.51825391  0.92453816  1  0.446237  0  0.038315  0.065073  0  3.937186  0
C  C89  1  0.77292897  0.07531670  0.59354802  1  0.405446  0  0.039544  0.068435  0  3.931188  0
C  C90  1  0.82088283  0.59354892  0.51817431  1  0.333418  0  0.039934  0.068238  0  3.931374  0
C  C91  1  0.30248101  0.48174411  0.07546043  1  0.44639  0  0.038254  0.06528  0  3.93737  0
C  C92  1  0.22707513  0.92468256  0.40645292  1  0.405542  0  0.03948  0.068575  0  3.931499  0
C  C93  1  0.75558900  0.46113069  0.20246999  1  -0.034647  0  0.01005  0.074684  0  4.018652  0
C  C94  1  0.55330685  0.79749781  0.25866909  1  -0.038169  0  0.011574  0.072898  0  4.018434  0
C  C95  1  0.29448159  0.74144235  0.53906183  1  -0.05864  0  0.008629  0.072331  0  4.017592  0
C  C96  1  0.24440817  0.53886857  0.79752952  1  -0.034715  0  0.010071  0.074652  0  4.018551  0
C  C97  1  0.44668952  0.20250332  0.74133008  1  -0.038386  0  0.011575  0.07293  0  4.01831  0
C  C98  1  0.70551674  0.25855754  0.46094127  1  -0.059136  0  0.008641  0.072367  0  4.017687  0
C  C99  1  0.67463231  0.50589095  0.22165555  1  -0.009367  0  -0.088644  -0.170851  0  3.970633  0
C  C100  1  0.45306852  0.77829501  0.28416341  1  0.019017  0  -0.087829  -0.168  0  3.967602  0
C  C101  1  0.16874997  0.71579223  0.49422098  1  0.044776  0  -0.087603  -0.170316  0  3.968945  0
C  C102  1  0.32536399  0.49410831  0.77834385  1  -0.009384  0  -0.088676  -0.170945  0  3.970626  0
C  C103  1  0.54692840  0.22170550  0.71583556  1  0.018719  0  -0.087849  -0.168033  0  3.967428  0
C  C104  1  0.83125072  0.28420890  0.50578244  1  0.044928  0  -0.087568  -0.170281  0  3.968877  0
C  C105  1  0.60265420  0.51562881  0.16134978  1  0.393489  0  0.03949  0.075818  0  3.935291  0
C  C106  1  0.44130850  0.83861752  0.35417686  1  0.423382  0  0.037189  0.072816  0  3.936804  0
C  C107  1  0.08702220  0.64570741  0.48442298  1  0.415566  0  0.037471  0.073393  0  3.937489  0
C  C108  1  0.39734203  0.48436859  0.83864775  1  0.393401  0  0.03954  0.076005  0  3.935263  0
C  C109  1  0.55869103  0.16138298  0.64582297  1  0.423406  0  0.037228  0.07282  0  3.936812  0
C  C110  1  0.91297991  0.35429310  0.51557983  1  0.415244  0  0.037461  0.073452  0  3.937437  0
C  C111  1  0.68269976  0.43988762  0.06357278  1  0.465798  0  0.039354  0.072504  0  3.931013  0
C  C112  1  0.61933843  0.93639327  0.37633538  1  0.399522  0  0.042154  0.07689  0  3.92737  0
C  C113  1  0.24284644  0.62381306  0.56031798  1  0.399428  0  0.040925  0.074831  0  3.92934  0
C  C114  1  0.31729734  0.56010978  0.93642539  1  0.465762  0  0.03941  0.072436  0  3.931016  0
C  C115  1  0.38066079  0.06360662  0.62366256  1  0.399556  0  0.0421  0.076736  0  3.92738  0
C  C116  1  0.75715599  0.37618807  0.43968514  1  0.399348  0  0.040932  0.074748  0  3.929328  0
C  C117  1  0.75788727  0.42759276  0.12068992  1  -0.004236  0  -0.085509  -0.165334  0  3.952302  0
C  C118  1  0.63746491  0.87925388  0.30695385  1  0.046635  0  -0.085963  -0.165088  0  3.950214  0
C  C119  1  0.33032023  0.69327714  0.57268746  1  0.040286  0  -0.085473  -0.165554  0  3.950326  0
C  C120  1  0.24211076  0.57240651  0.87930971  1  -0.004226  0  -0.085464  -0.16514  0  3.952296  0
C  C121  1  0.36253461  0.12074662  0.69304493  1  0.046836  0  -0.085948  -0.165035  0  3.950212  0
C  C122  1  0.66968021  0.30672524  0.42731700  1  0.040674  0  -0.085509  -0.165581  0  3.950361  0
N  N123  1  0.92194878  0.47088003  0.38607722  1  -0.700856  0  -0.267127  -0.149786  0  3.670989  0
N  N124  1  0.53601422  0.61394729  0.08477163  1  -0.703309  0  -0.265754  -0.149103  0  3.670051  0
N  N125  1  0.45101582  0.91525133  0.52917563  1  -0.703355  0  -0.266524  -0.148702  0  3.670079  0
N  N126  1  0.07805421  0.52912048  0.61392254  1  -0.700549  0  -0.26712  -0.14981  0  3.670947  0
N  N127  1  0.46398295  0.38605197  0.91522630  1  -0.703317  0  -0.265797  -0.149218  0  3.670136  0
N  N128  1  0.54898426  0.08474856  0.47082506  1  -0.703362  0  -0.266472  -0.148566  0  3.670115  0
N  N129  1  0.83701968  0.49028119  0.34585027  1  -0.669643  0  -0.227373  -0.271064  0  3.214872  0
N  N130  1  0.49133893  0.65416443  0.14441955  1  -0.676329  0  -0.227744  -0.272268  0  3.215232  0
N  N131  1  0.34667593  0.85559224  0.50978637  1  -0.672286  0  -0.228144  -0.273627  0  3.216544  0
N  N132  1  0.16298331  0.50971932  0.65414949  1  -0.6699  0  -0.22736  -0.270892  0  3.214586  0
N  N133  1  0.50865769  0.34583546  0.85557858  1  -0.676687  0  -0.227761  -0.272342  0  3.215444  0
N  N134  1  0.65332445  0.14440827  0.49021568  1  -0.672706  0  -0.228111  -0.273703  0  3.216639  0
N  N135  1  0.91314600  0.40865083  0.25227948  1  -1.168983  0  -0.352689  -0.430037  0  3.166507  0
N  N136  1  0.66104608  0.74773366  0.15630589  1  -1.17255  0  -0.352132  -0.430156  0  3.167041  0
N  N137  1  0.50452932  0.84384371  0.59155454  1  -1.180668  0  -0.352736  -0.43101  0  3.164871  0
N  N138  1  0.08685644  0.59135030  0.74772048  1  -1.169017  0  -0.352666  -0.430001  0  3.166581  0
N  N139  1  0.33894535  0.25226622  0.84368893  1  -1.172637  0  -0.352154  -0.43015  0  3.166983  0
N  N140  1  0.49547113  0.15615866  0.40844887  1  -1.180434  0  -0.352716  -0.430922  0  3.164796  0
N  N141  1  0.09235954  0.42794694  0.44521433  1  -1.171747  0  -0.327567  -0.182571  0  3.55751  0
N  N142  1  0.64725394  0.55481312  0.98261130  1  -1.17245  0  -0.325915  -0.181094  0  3.555122  0
N  N143  1  0.66450510  0.01734662  0.57212414  1  -1.175153  0  -0.326487  -0.182518  0  3.554797  0
N  N144  1  0.90764203  0.57205419  0.55478551  1  -1.171758  0  -0.327512  -0.182532  0  3.557734  0
N  N145  1  0.35274087  0.44518490  0.01738526  1  -1.172476  0  -0.325935  -0.18121  0  3.554918  0
N  N146  1  0.33549702  0.98265389  0.42787603  1  -1.175175  0  -0.326461  -0.182493  0  3.554594  0
N  N147  1  0.60550523  0.48355493  0.08265921  1  -1.174655  0  -0.344223  -0.155243  0  3.639738  0
N  N148  1  0.52289922  0.91726316  0.40078945  1  -1.198138  0  -0.343068  -0.155234  0  3.639331  0
N  N149  1  0.12198042  0.59914271  0.51652337  1  -1.183449  0  -0.344268  -0.154872  0  3.639431  0
N  N150  1  0.39449368  0.51644433  0.91733948  1  -1.174614  0  -0.344274  -0.15538  0  3.639856  0
N  N151  1  0.47710142  0.08273610  0.59920840  1  -1.198162  0  -0.343078  -0.155151  0  3.639264  0
N  N152  1  0.87802170  0.40085780  0.48347838  1  -1.183658  0  -0.344279  -0.154955  0  3.639324  0
