# generated using pymatgen
data_LaH28C42S3NO7
_symmetry_space_group_name_H-M   'P 1'
_cell_length_a   8.09033154
_cell_length_b   20.64390556
_cell_length_c   20.64396080
_cell_angle_alpha   70.36759821
_cell_angle_beta   78.92006011
_cell_angle_gamma   78.91990842
_symmetry_Int_Tables_number   1
_chemical_formula_structural   LaH28C42S3NO7
_chemical_formula_sum   'La2 H56 C84 S6 N2 O14'
_cell_volume   3156.38817972
_cell_formula_units_Z   2
loop_
 _symmetry_equiv_pos_site_id
 _symmetry_equiv_pos_as_xyz
  1  'x, y, z'
loop_
 _atom_site_type_symbol
 _atom_site_label
 _atom_site_symmetry_multiplicity
 _atom_site_fract_x
 _atom_site_fract_y
 _atom_site_fract_z
 _atom_site_occupancy
 _atom_site_pbe_bader_charge
 _atom_site_pbe_bader_spin_density
 _atom_site_pbe_cm5_charge
 _atom_site_pbe_ddec_charge
 _atom_site_pbe_ddec_spin_density
 _atom_site_pbe_ddec_sum_bond_order
 _atom_site_pbe_magmom
La  La0  1  0.50004137  0.68455950  0.66545635  1  2.236161  0  1.397253  1.849454  0  2.379309  0
La  La1  1  0.00004638  0.66545423  0.68456157  1  2.236165  0  1.397278  1.849521  0  2.379192  0
H  H2  1  0.10148351  0.06543428  0.12433710  1  0.049333  0  0.095479  0.100616  0  1.028288  0
H  H3  1  0.60146876  0.12434081  0.06543625  1  0.049308  0  0.095492  0.100765  0  1.028098  0
H  H4  1  0.02138604  0.13858836  0.90981549  1  0.049153  0  0.090804  0.093344  0  1.05263  0
H  H5  1  0.52140458  0.90981642  0.13858536  1  0.049054  0  0.0908  0.093383  0  1.052561  0
H  H6  1  0.96305283  0.92798298  0.03284061  1  0.071285  0  0.09671  0.103209  0  1.028587  0
H  H7  1  0.46305456  0.03284028  0.92798319  1  0.071299  0  0.096691  0.103197  0  1.028565  0
H  H8  1  0.96992534  0.77689839  0.26209810  1  0.049186  0  0.098425  0.109501  0  1.010222  0
H  H9  1  0.46992132  0.26209971  0.77689713  1  0.049589  0  0.098403  0.109477  0  1.01028  0
H  H10  1  0.91037426  0.85693548  0.13833178  1  0.076289  0  0.106311  0.123175  0  0.991214  0
H  H11  1  0.41036251  0.13833483  0.85693601  1  0.076296  0  0.106282  0.123075  0  0.991205  0
H  H12  1  0.07124794  0.72828904  0.36126529  1  0.037593  0  0.08921  0.079852  0  1.042139  0
H  H13  1  0.57126237  0.36126275  0.72828373  1  0.03789  0  0.089225  0.079957  0  1.042071  0
H  H14  1  0.14705959  0.68276915  0.48136896  1  0.089444  0  0.101764  0.098529  0  1.022538  0
H  H15  1  0.64706555  0.48136782  0.68276206  1  0.089555  0  0.101764  0.098501  0  1.02254  0
H  H16  1  0.33143407  0.87312542  0.45284278  1  0.092061  0  0.112754  0.121806  0  0.979255  0
H  H17  1  0.83142697  0.45284746  0.87311733  1  0.092081  0  0.112801  0.121883  0  0.979323  0
H  H18  1  0.24393139  0.92193359  0.33509779  1  0.080714  0  0.090434  0.089735  0  1.042479  0
H  H19  1  0.74391800  0.33510331  0.92193211  1  0.080782  0  0.09047  0.089798  0  1.042489  0
H  H20  1  0.28705298  0.28769429  0.05543376  1  0.046494  0  0.102978  0.115764  0  1.002914  0
H  H21  1  0.78706138  0.05543293  0.28769400  1  0.04649  0  0.102991  0.115764  0  1.002841  0
H  H22  1  0.21395303  0.16094872  0.10469943  1  0.070432  0  0.103782  0.120798  0  0.997391  0
H  H23  1  0.71395023  0.10470179  0.16094826  1  0.070395  0  0.103766  0.120793  0  0.997401  0
H  H24  1  0.30951579  0.39757098  0.99219637  1  0.053638  0  0.097795  0.097009  0  1.006906  0
H  H25  1  0.80951602  0.99219244  0.39757091  1  0.053738  0  0.097796  0.096994  0  1.006873  0
H  H26  1  0.38167256  0.51136355  0.91084177  1  0.090563  0  0.109106  0.112386  0  0.987987  0
H  H27  1  0.88166823  0.91084124  0.51136207  1  0.090672  0  0.109127  0.112386  0  0.988014  0
H  H28  1  0.19710163  0.47296097  0.74790803  1  0.107715  0  0.10316  0.097189  0  1.029199  0
H  H29  1  0.69709483  0.74790549  0.47296382  1  0.107612  0  0.10318  0.097268  0  1.029106  0
H  H30  1  0.13297625  0.35764065  0.82641314  1  0.041747  0  0.089745  0.089031  0  1.03509  0
H  H31  1  0.63298425  0.82640939  0.35764013  1  0.041696  0  0.089738  0.089004  0  1.035172  0
H  H32  1  0.77337801  0.07281029  0.75416675  1  0.038614  0  0.101508  0.114158  0  1.005042  0
H  H33  1  0.27337662  0.75416828  0.07281347  1  0.038553  0  0.101496  0.114118  0  1.00504  0
H  H34  1  0.87102248  0.12664441  0.83578481  1  0.085078  0  0.099599  0.115145  0  1.012698  0
H  H35  1  0.37102852  0.83578221  0.12664749  1  0.084996  0  0.099573  0.115167  0  1.012654  0
H  H36  1  0.68333854  0.00317869  0.71142726  1  0.037954  0  0.09669  0.095262  0  1.012122  0
H  H37  1  0.18335214  0.71142368  0.00317860  1  0.037936  0  0.096632  0.095213  0  1.012112  0
H  H38  1  0.60411317  0.92097358  0.66181930  1  0.073052  0  0.108549  0.112072  0  0.989127  0
H  H39  1  0.10411812  0.66181547  0.92097426  1  0.073114  0  0.108563  0.112074  0  0.989082  0
H  H40  1  0.79243792  0.74854243  0.82756164  1  0.159446  0  0.115302  0.125144  0  1.000459  0
H  H41  1  0.29243308  0.82756229  0.74854597  1  0.159511  0  0.11534  0.125175  0  1.000509  0
H  H42  1  0.87070186  0.82920448  0.87847539  1  0.098318  0  0.094317  0.098302  0  1.029568  0
H  H43  1  0.37070003  0.87847325  0.82920982  1  0.098415  0  0.094321  0.098282  0  1.029637  0
H  H44  1  0.82777750  0.58743355  0.57491183  1  0.149475  0  0.135045  0.069251  0  1.040872  0
H  H45  1  0.32780106  0.57490452  0.58743834  1  0.149457  0  0.135012  0.069228  0  1.040818  0
H  H46  1  0.01836018  0.56570551  0.49426968  1  0.078545  0  0.113921  0.128723  0  1.010814  0
H  H47  1  0.51836801  0.49426330  0.56570084  1  0.078493  0  0.113903  0.128682  0  1.010964  0
H  H48  1  0.98957287  0.61795585  0.40740470  1  0.04682  0  0.104924  0.116043  0  0.992861  0
H  H49  1  0.48958207  0.40739886  0.61795165  1  0.046631  0  0.104897  0.115934  0  0.992945  0
H  H50  1  0.94718133  0.53022261  0.43790911  1  0.060379  0  0.100363  0.105695  0  0.984647  0
H  H51  1  0.44718785  0.43790651  0.53021705  1  0.060176  0  0.100304  0.105621  0  0.984618  0
H  H52  1  0.62808110  0.57980190  0.41162886  1  0.037757  0  0.100814  0.105481  0  0.987689  0
H  H53  1  0.12808492  0.41162930  0.57979587  1  0.037603  0  0.100795  0.105442  0  0.987717  0
H  H54  1  0.68294042  0.66565024  0.38426806  1  0.038835  0  0.108436  0.121864  0  0.973152  0
H  H55  1  0.18294179  0.38426388  0.66564276  1  0.038494  0  0.108451  0.121851  0  0.973218  0
H  H56  1  0.51931749  0.64077175  0.45579686  1  0.147565  0  0.115895  0.136588  0  1.01202  0
H  H57  1  0.01931556  0.45579738  0.64076289  1  0.147629  0  0.115917  0.136615  0  1.011993  0
C  C58  1  0.03568139  0.99011784  0.08565579  1  0.005843  0  -0.010259  0.091814  0  4.060636  0
C  C59  1  0.53568477  0.08565571  0.99011725  1  0.006054  0  -0.010177  0.091874  0  4.06053  0
C  C60  1  0.07071667  0.05611461  0.07936893  1  -0.014688  0  -0.093725  -0.175586  0  3.904048  0
C  C61  1  0.57071885  0.07937078  0.05611461  1  -0.014765  0  -0.093776  -0.17581  0  3.903956  0
C  C62  1  0.06633549  0.11021795  0.01619493  1  0.021875  0  -0.013986  0.08897  0  4.079619  0
C  C63  1  0.56634634  0.01619685  0.11021657  1  0.021837  0  -0.014059  0.08896  0  4.079686  0
C  C64  1  0.02234618  0.09743503  0.95945231  1  -0.021766  0  -0.099186  -0.193584  0  3.936958  0
C  C65  1  0.52236820  0.95945309  0.09743289  1  -0.021687  0  -0.099071  -0.193545  0  3.936825  0
C  C66  1  0.98093081  0.03258463  0.96506758  1  -0.020896  0  -0.013056  0.089627  0  4.079484  0
C  C67  1  0.48094394  0.96506709  0.03258537  1  -0.020843  0  -0.013163  0.089598  0  4.079449  0
C  C68  1  0.99068814  0.97908213  0.02824927  1  0.000257  0  -0.08959  -0.165952  0  3.893204  0
C  C69  1  0.49070415  0.02824883  0.97907973  1  8.4e-05  0  -0.089547  -0.165953  0  3.893173  0
C  C70  1  0.04399673  0.93331455  0.15061949  1  -0.19308  0  -0.010531  -0.0001  0  3.980064  0
C  C71  1  0.54400220  0.15062144  0.93331244  1  -0.193118  0  -0.010626  -0.000206  0  3.979999  0
C  C72  1  0.10229712  0.85621382  0.26970393  1  -0.212278  0  -0.020345  -0.020629  0  4.016298  0
C  C73  1  0.60229940  0.26970571  0.85620946  1  -0.212229  0  -0.020277  -0.02051  0  4.016229  0
C  C74  1  0.01381194  0.82729210  0.23735081  1  0.02132  0  -0.113699  -0.160701  0  4.06156  0
C  C75  1  0.51380722  0.23735312  0.82729056  1  0.020651  0  -0.113683  -0.160792  0  4.061597  0
C  C76  1  0.98113344  0.87047397  0.17063749  1  -0.018273  0  -0.109035  -0.156011  0  4.050707  0
C  C77  1  0.48112810  0.17063958  0.87047475  1  -0.018141  0  -0.109009  -0.155786  0  4.05055  0
C  C78  1  0.15333524  0.82833906  0.33875562  1  -0.014761  0  -0.009956  0.085219  0  4.044598  0
C  C79  1  0.65332760  0.33876020  0.82833517  1  -0.013935  0  -0.009935  0.085275  0  4.044689  0
C  C80  1  0.12837839  0.76035393  0.38099694  1  0.045863  0  -0.098756  -0.136674  0  4.000723  0
C  C81  1  0.62837505  0.38099702  0.76035130  1  0.045179  0  -0.098749  -0.136739  0  4.000735  0
C  C82  1  0.17202184  0.73439100  0.44773970  1  -0.144935  0  -0.089463  -0.102068  0  4.013818  0
C  C83  1  0.67202139  0.44773943  0.73438505  1  -0.145728  0  -0.089492  -0.102  0  4.013629  0
C  C84  1  0.24641477  0.77481226  0.47370294  1  -0.040649  0  -0.015417  -0.035924  0  3.973427  0
C  C85  1  0.74640960  0.47370259  0.77480862  1  -0.04011  0  -0.015406  -0.036153  0  3.973497  0
C  C86  1  0.27374847  0.84215859  0.43203646  1  0.059605  0  -0.07523  -0.068698  0  3.957987  0
C  C87  1  0.77375216  0.43203781  0.84215479  1  0.059612  0  -0.075285  -0.068655  0  3.957969  0
C  C88  1  0.22573999  0.86875446  0.36611858  1  -0.113771  0  -0.096292  -0.143263  0  3.989875  0
C  C89  1  0.72573584  0.36612076  0.86875123  1  -0.114098  0  -0.096383  -0.143459  0  3.990067  0
C  C90  1  0.29829151  0.74713115  0.54422415  1  1.559369  0  0.214199  0.590466  0  4.19944  0
C  C91  1  0.79829645  0.54422152  0.74712495  1  1.559338  0  0.214189  0.590472  0  4.199644  0
C  C92  1  0.11116635  0.17760991  0.00923601  1  -0.200793  0  -0.020093  -0.017086  0  4.010622  0
C  C93  1  0.61116771  0.00923752  0.17760918  1  -0.2008  0  -0.020122  -0.017111  0  4.010683  0
C  C94  1  0.18328548  0.29984183  0.96136749  1  -0.206741  0  -0.016512  -0.010686  0  4.001533  0
C  C95  1  0.68329397  0.96136675  0.29983982  1  -0.206822  0  -0.01654  -0.010844  0  4.001416  0
C  C96  1  0.22432932  0.26497698  0.02783172  1  -0.06179  0  -0.113307  -0.161813  0  4.061489  0
C  C97  1  0.72433001  0.02783282  0.26497744  1  -0.061873  0  -0.11331  -0.161813  0  4.061186  0
C  C98  1  0.18413351  0.19656906  0.05461660  1  0.012487  0  -0.112288  -0.154721  0  4.047425  0
C  C99  1  0.68413713  0.05461666  0.19656846  1  0.012461  0  -0.112241  -0.154643  0  4.047345  0
C  C100  1  0.21684638  0.36842678  0.91541838  1  0.012211  0  -0.010969  0.080731  0  4.041838  0
C  C101  1  0.71685369  0.91541431  0.36842756  1  0.01235  0  -0.011023  0.080774  0  4.041875  0
C  C102  1  0.28538646  0.41337628  0.93850241  1  0.009552  0  -0.093436  -0.134574  0  3.971525  0
C  C103  1  0.78539195  0.93849817  0.41337385  1  0.009458  0  -0.093389  -0.134553  0  3.971479  0
C  C104  1  0.32518701  0.47729735  0.89345230  1  -0.089282  0  -0.075173  -0.07192  0  3.964029  0
C  C105  1  0.82519020  0.89344851  0.47729687  1  -0.08917  0  -0.075179  -0.071898  0  3.964015  0
C  C106  1  0.29451181  0.49910295  0.82429691  1  0.026085  0  -0.009298  -0.023359  0  3.942451  0
C  C107  1  0.79450896  0.82429604  0.49910225  1  0.025974  0  -0.00928  -0.023252  0  3.942419  0
C  C108  1  0.22307887  0.45545176  0.80130971  1  -0.021844  0  -0.077857  -0.064458  0  3.978653  0
C  C109  1  0.72307140  0.80130685  0.45545271  1  -0.021981  0  -0.077924  -0.064653  0  3.97866  0
C  C110  1  0.18648251  0.39114308  0.84571776  1  -0.029684  0  -0.098363  -0.145833  0  3.994995  0
C  C111  1  0.68647979  0.84571495  0.39114404  1  -0.029581  0  -0.098348  -0.145776  0  3.995086  0
C  C112  1  0.34147734  0.56650794  0.77529669  1  1.515687  0  0.206684  0.576845  0  4.201561  0
C  C113  1  0.84146743  0.77529798  0.56650977  1  1.515759  0  0.206684  0.576878  0  4.201531  0
C  C114  1  0.92682582  0.02186829  0.90644913  1  -0.223648  0  -0.01953  -0.017168  0  4.009282  0
C  C115  1  0.42684630  0.90644577  0.02186925  1  -0.2233  0  -0.019525  -0.017113  0  4.009226  0
C  C116  1  0.82917258  0.97010578  0.82861333  1  -0.283649  0  -0.016917  -0.014672  0  4.016988  0
C  C117  1  0.32918890  0.82861024  0.97010792  1  -0.283411  0  -0.016861  -0.014529  0  4.016741  0
C  C118  1  0.81973458  0.04197454  0.80300165  1  0.092122  0  -0.113286  -0.157194  0  4.041178  0
C  C119  1  0.31975334  0.80299954  0.04197716  1  0.092504  0  -0.113361  -0.157212  0  4.041051  0
C  C120  1  0.87503386  0.07103968  0.84657108  1  -0.021348  0  -0.112426  -0.151612  0  4.040937  0
C  C121  1  0.37505575  0.84656883  0.07104170  1  -0.021233  0  -0.112362  -0.151679  0  4.040974  0
C  C122  1  0.78324791  0.92239853  0.79886680  1  0.049024  0  -0.012433  0.073693  0  4.067092  0
C  C123  1  0.28325175  0.79886604  0.92240183  1  0.048169  0  -0.01239  0.073623  0  4.067157  0
C  C124  1  0.70752058  0.94742015  0.73729651  1  -0.018748  0  -0.095894  -0.138874  0  3.984271  0
C  C125  1  0.20752002  0.73729565  0.94742196  1  -0.018778  0  -0.095871  -0.138828  0  3.984122  0
C  C126  1  0.66315875  0.90184670  0.70919812  1  -0.054291  0  -0.078156  -0.077685  0  3.972673  0
C  C127  1  0.16315879  0.70919640  0.90184943  1  -0.054407  0  -0.078132  -0.077664  0  3.9725  0
C  C128  1  0.69437017  0.82988702  0.74138759  1  0.053121  0  -0.012021  -0.032248  0  3.971979  0
C  C129  1  0.19437677  0.74138411  0.82988954  1  0.053388  0  -0.012044  -0.032209  0  3.971994  0
C  C130  1  0.76853532  0.80440365  0.80269866  1  -0.071032  0  -0.074168  -0.077013  0  3.948298  0
C  C131  1  0.26853403  0.80269657  0.80440782  1  -0.071119  0  -0.074163  -0.077042  0  3.948451  0
C  C132  1  0.81171289  0.85005889  0.83099677  1  -0.159034  0  -0.093191  -0.135935  0  3.981531  0
C  C133  1  0.31170871  0.83099557  0.85006421  1  -0.159029  0  -0.093247  -0.135935  0  3.981717  0
C  C134  1  0.64498159  0.78144640  0.71162379  1  1.536218  0  0.207215  0.572115  0  4.216147  0
C  C135  1  0.14498684  0.71162029  0.78144828  1  1.536276  0  0.207265  0.572187  0  4.216036  0
C  C136  1  0.72196894  0.60281826  0.54374324  1  1.354219  0  0.183273  0.301503  0  4.083416  0
C  C137  1  0.22197685  0.54373743  0.60281798  1  1.354474  0  0.183384  0.301679  0  4.08378  0
C  C138  1  0.93963749  0.57716170  0.45304046  1  0.258848  0  -0.124949  -0.26711  0  3.93228  0
C  C139  1  0.43964910  0.45303533  0.57715695  1  0.259083  0  -0.124944  -0.266982  0  3.932365  0
C  C140  1  0.64182532  0.62270078  0.42970289  1  0.251445  0  -0.129195  -0.26936  0  3.91522  0
C  C141  1  0.14182438  0.42970182  0.62269623  1  0.251311  0  -0.129233  -0.269311  0  3.915158  0
S  S142  1  0.14508263  0.93744802  0.21540755  1  0.194546  0  0.087098  0.086794  0  2.943255  0
S  S143  1  0.64508436  0.21541315  0.93744489  1  0.194648  0  0.08715  0.086811  0  2.943191  0
S  S144  1  0.08967943  0.24657522  0.93401263  1  0.194929  0  0.079172  0.07731  0  2.970996  0
S  S145  1  0.58968505  0.93401222  0.24657476  1  0.194955  0  0.079189  0.077337  0  2.970993  0
S  S146  1  0.90853078  0.93955803  0.90720912  1  0.21569  0  0.087567  0.092864  0  2.926456  0
S  S147  1  0.40855830  0.90720493  0.93955936  1  0.215456  0  0.087567  0.092823  0  2.926242  0
N  N148  1  0.76564482  0.60005303  0.47816527  1  -1.212003  0  -0.289328  0.010559  0  3.727045  0
N  N149  1  0.26565615  0.47816014  0.60004978  1  -1.211481  0  -0.289416  0.010347  0  3.726989  0
O  O150  1  0.40524392  0.77583929  0.55857073  1  -1.153861  0  -0.352388  -0.550978  0  2.196095  0
O  O151  1  0.90524538  0.55856984  0.77583500  1  -1.154064  0  -0.352371  -0.550895  0  2.196149  0
O  O152  1  0.23887055  0.69279020  0.58786754  1  -1.220142  0  -0.408643  -0.671542  0  2.363842  0
O  O153  1  0.73888021  0.58786809  0.69278606  1  -1.220017  0  -0.408646  -0.671566  0  2.363948  0
O  O154  1  0.29368798  0.58797146  0.71400938  1  -1.224345  0  -0.404674  -0.685723  0  2.305907  0
O  O155  1  0.79369077  0.71400586  0.58797214  1  -1.224297  0  -0.404714  -0.685853  0  2.305909  0
O  O156  1  0.43074885  0.60092948  0.79196230  1  -1.169647  0  -0.340355  -0.564721  0  2.155518  0
O  O157  1  0.93073274  0.79196448  0.60093113  1  -1.169593  0  -0.340275  -0.564673  0  2.155499  0
O  O158  1  0.70942443  0.71628630  0.73131996  1  -1.214493  0  -0.412735  -0.661202  0  2.272175  0
O  O159  1  0.20942770  0.73131578  0.71628716  1  -1.2145  0  -0.412832  -0.661295  0  2.272063  0
O  O160  1  0.53830407  0.80304808  0.66883297  1  -1.171338  0  -0.349863  -0.559182  0  2.189439  0
O  O161  1  0.03830845  0.66883024  0.80304827  1  -1.171377  0  -0.349816  -0.559136  0  2.189515  0
O  O162  1  0.57328781  0.62098366  0.56796491  1  -1.181174  0  -0.320299  -0.487796  0  2.358324  0
O  O163  1  0.07331959  0.56795816  0.62097715  1  -1.181142  0  -0.320246  -0.487716  0  2.358815  0
