# generated using pymatgen
data_CuH24(C5N)8
_symmetry_space_group_name_H-M   'P 1'
_cell_length_a   9.30815477
_cell_length_b   19.56174181
_cell_length_c   19.56009147
_cell_angle_alpha   117.54048052
_cell_angle_beta   99.12316892
_cell_angle_gamma   99.12699179
_symmetry_Int_Tables_number   1
_chemical_formula_structural   CuH24(C5N)8
_chemical_formula_sum   'Cu3 H72 C120 N24'
_cell_volume   3006.62929994
_cell_formula_units_Z   3
loop_
 _symmetry_equiv_pos_site_id
 _symmetry_equiv_pos_as_xyz
  1  'x, y, z'
loop_
 _atom_site_type_symbol
 _atom_site_label
 _atom_site_symmetry_multiplicity
 _atom_site_fract_x
 _atom_site_fract_y
 _atom_site_fract_z
 _atom_site_occupancy
 _atom_site_pbe_bader_charge
 _atom_site_pbe_bader_spin_density
 _atom_site_pbe_cm5_charge
 _atom_site_pbe_ddec_charge
 _atom_site_pbe_ddec_spin_density
 _atom_site_pbe_ddec_sum_bond_order
 _atom_site_pbe_magmom
Cu  Cu0  1  0.50000237  0.50000444  0.49999954  1  1.053341  -0.589008  0.759807  0.620321  -0.742829  2.464098  -0.588
Cu  Cu1  1  0.00000353  0.50000106  0.00000286  1  1.056223  -0.589062  0.759536  0.618874  -0.742808  2.466281  -0.588
Cu  Cu2  1  0.99999955  0.99999731  0.49999743  1  1.059109  -0.589016  0.759753  0.619132  -0.742749  2.467342  -0.588
H  H3  1  0.06717678  0.49853472  0.64452956  1  0.103273  -0.000957  0.098636  0.112629  -0.000476  1.052179  0.0
H  H4  1  0.42252643  0.35548656  0.85400223  1  0.091683  -0.00096  0.098853  0.112985  -0.000476  1.053252  0.0
H  H5  1  0.56867374  0.14600376  0.50154377  1  0.100728  -0.000961  0.09899  0.112319  -0.000476  1.053515  0.0
H  H6  1  0.93281745  0.50146400  0.35546197  1  0.10323  -0.000957  0.098658  0.112695  -0.000476  1.052236  0.0
H  H7  1  0.57747875  0.64452112  0.14600503  1  0.091571  -0.000961  0.098847  0.112995  -0.000476  1.05326  0.0
H  H8  1  0.43132626  0.85399137  0.49845576  1  0.100766  -0.000961  0.099017  0.112389  -0.000476  1.053401  0.0
H  H9  1  0.09675135  0.34762346  0.57709676  1  0.084834  -0.001022  0.10288  0.12187  -0.000495  1.015093  0.0
H  H10  1  0.51944940  0.42303803  0.77060103  1  0.089525  -0.001023  0.102952  0.122504  -0.000494  1.014682  0.0
H  H11  1  0.74876320  0.22927119  0.65253395  1  0.088144  -0.001015  0.10256  0.121223  -0.000495  1.015091  0.0
H  H12  1  0.90324334  0.65237406  0.42289835  1  0.084953  -0.001022  0.102911  0.121891  -0.000495  1.015089  0.0
H  H13  1  0.48055302  0.57696845  0.22940392  1  0.089481  -0.001023  0.102935  0.122477  -0.000494  1.01466  0.0
H  H14  1  0.25123890  0.77072812  0.34746665  1  0.088134  -0.001015  0.102544  0.121186  -0.000495  1.015136  0.0
H  H15  1  0.44144047  0.19491025  0.40418569  1  0.096284  -0.000912  0.102323  0.121798  -0.000443  1.031935  0.0
H  H16  1  0.03720878  0.59588172  0.79079565  1  0.098263  -0.000914  0.102138  0.12194  -0.000443  1.031878  0.0
H  H17  1  0.24651609  0.20924011  0.80512534  1  0.090219  -0.000915  0.102231  0.122654  -0.000442  1.031743  0.0
H  H18  1  0.55856175  0.80509145  0.59581346  1  0.096307  -0.000912  0.102298  0.121822  -0.000443  1.031941  0.0
H  H19  1  0.96279779  0.40411998  0.20920537  1  0.098238  -0.000914  0.102131  0.121908  -0.000443  1.031926  0.0
H  H20  1  0.75347985  0.79075561  0.19487620  1  0.090275  -0.000915  0.102225  0.122636  -0.000442  1.031685  0.0
H  H21  1  0.66925957  0.23493839  0.34955207  1  0.077068  -0.001029  0.102296  0.118997  -0.000502  1.023614  0.0
H  H22  1  0.31953816  0.65061503  0.88558093  1  0.084669  -0.001024  0.102253  0.119944  -0.000501  1.023306  0.0
H  H23  1  0.43421487  0.11452773  0.76507651  1  0.081194  -0.001032  0.102761  0.120481  -0.000502  1.022369  0.0
H  H24  1  0.33074199  0.76506630  0.65044586  1  0.077041  -0.001029  0.102295  0.119013  -0.000502  1.023642  0.0
H  H25  1  0.68046782  0.34939205  0.11442611  1  0.084716  -0.001024  0.102203  0.119844  -0.000501  1.023255  0.0
H  H26  1  0.56577371  0.88546202  0.23492272  1  0.081223  -0.001032  0.102738  0.120421  -0.000502  1.022361  0.0
H  H27  1  0.94385572  0.09435703  0.40143541  1  0.07967  0.000113  0.110198  0.075532  0.000122  1.010637  0.0
H  H28  1  0.54268452  0.59873065  0.69297021  1  0.076053  0.000114  0.111039  0.076255  0.000122  1.010648  0.0
H  H29  1  0.84931273  0.30704405  0.90568363  1  0.084946  0.000115  0.110181  0.075323  0.000124  1.011984  0.0
H  H30  1  0.05614713  0.90563929  0.59855210  1  0.079827  0.000113  0.110177  0.075494  0.000122  1.010781  0.0
H  H31  1  0.45731837  0.40126806  0.30702914  1  0.076026  0.000114  0.111029  0.07627  0.000122  1.010626  0.0
H  H32  1  0.15069744  0.69295406  0.09432368  1  0.085003  0.000115  0.110145  0.075293  0.000124  1.01202  0.0
H  H33  1  0.04386125  0.22174747  0.40195434  1  0.080013  3.3e-05  0.108527  0.120587  2.8e-05  0.996297  0.0
H  H34  1  0.64216726  0.59825162  0.81989487  1  0.10018  3.4e-05  0.108303  0.120201  2.8e-05  0.996436  0.0
H  H35  1  0.82194188  0.18009344  0.77831888  1  0.060925  3.3e-05  0.108289  0.120253  2.7e-05  0.995998  0.0
H  H36  1  0.95614197  0.77825184  0.59803969  1  0.080106  3.3e-05  0.108565  0.120651  2.8e-05  0.996235  0.0
H  H37  1  0.35783575  0.40174949  0.18010457  1  0.102489  3.3e-05  0.108283  0.120161  2.8e-05  0.996463  0.0
H  H38  1  0.17806830  0.81990467  0.22168690  1  0.061041  3.3e-05  0.108245  0.120211  2.7e-05  0.995961  0.0
H  H39  1  0.44469119  0.26576094  0.57725868  1  0.046855  -5.8e-05  0.10649  0.117328  -3.3e-05  0.993503  0.0
H  H40  1  0.86725897  0.42270055  0.68850472  1  0.05346  -5.8e-05  0.106108  0.116799  -3.3e-05  0.993273  0.0
H  H41  1  0.17877484  0.31130171  0.73424189  1  0.086861  -5.5e-05  0.106538  0.117594  -3.2e-05  0.992755  0.0
H  H42  1  0.55531064  0.73423777  0.42273651  1  0.046739  -5.8e-05  0.106501  0.117292  -3.3e-05  0.993581  0.0
H  H43  1  0.13275364  0.57730235  0.31149630  1  0.053584  -5.8e-05  0.106124  0.116777  -3.3e-05  0.993206  0.0
H  H44  1  0.82122074  0.68869760  0.26575616  1  0.086568  -5.5e-05  0.106509  0.117565  -3.2e-05  0.992726  0.0
H  H45  1  0.32724489  0.13664171  0.56960535  1  0.06905  0.000105  0.110282  0.080496  0.000116  1.003739  0.0
H  H46  1  0.75759635  0.43037793  0.56706324  1  0.071341  0.000104  0.110046  0.080049  0.000116  1.004193  0.0
H  H47  1  0.19041349  0.43281439  0.86332394  1  0.074473  0.000103  0.110787  0.08068  0.000114  1.003491  0.0
H  H48  1  0.67275666  0.86335641  0.43038749  1  0.068883  0.000105  0.110267  0.08054  0.000116  1.003638  0.0
H  H49  1  0.24241596  0.56962437  0.43293798  1  0.07135  0.000104  0.110036  0.080047  0.000116  1.004268  0.0
H  H50  1  0.80958565  0.56718552  0.13667466  1  0.074467  0.000103  0.110785  0.080698  0.000114  1.003475  0.0
H  H51  1  0.18594979  0.79277797  0.84551686  1  0.087705  6e-06  0.111599  0.078497  1.1e-05  0.969645  0.0
H  H52  1  0.34078413  0.15431112  0.94711218  1  0.085064  6e-06  0.111785  0.079362  1.1e-05  0.969148  0.0
H  H53  1  0.39370206  0.05290696  0.20715350  1  0.083408  6e-06  0.111686  0.07887  1.1e-05  0.969597  0.0
H  H54  1  0.81405059  0.20722433  0.15447629  1  0.087575  6e-06  0.111591  0.0785  1.1e-05  0.96959  0.0
H  H55  1  0.65922696  0.84569536  0.05289907  1  0.084881  6e-06  0.111745  0.079294  1.1e-05  0.969221  0.0
H  H56  1  0.60629032  0.94708816  0.79284698  1  0.083356  6e-06  0.111695  0.078904  1.1e-05  0.969688  0.0
H  H57  1  0.35432217  0.72123831  0.76704985  1  0.060741  -8e-06  0.105821  0.114875  -1e-06  0.99242  0.0
H  H58  1  0.58762539  0.23274928  0.95403615  1  0.081037  -8e-06  0.105714  0.114817  -1e-06  0.992827  0.0
H  H59  1  0.63358375  0.04595976  0.27868375  1  0.071645  -8e-06  0.10534  0.113542  -1e-06  0.993712  0.0
H  H60  1  0.64567392  0.27875981  0.23294462  1  0.060825  -8e-06  0.105807  0.114863  -1e-06  0.992365  0.0
H  H61  1  0.41238256  0.76725959  0.04597136  1  0.080798  -8e-06  0.105725  0.114822  -1e-06  0.992891  0.0
H  H62  1  0.36640983  0.95403776  0.72131740  1  0.071559  -8e-06  0.105301  0.11348  -1e-06  0.993827  0.0
H  H63  1  0.96038184  0.57886795  0.56690918  1  0.088434  5.2e-05  0.100998  0.113891  6.1e-05  1.033663  0.0
H  H64  1  0.39387005  0.43287505  0.01183338  1  0.09026  5.2e-05  0.101138  0.114076  6.1e-05  1.032993  0.0
H  H65  1  0.38191234  0.98827373  0.42106004  1  0.089971  5.3e-05  0.100633  0.11325  6.1e-05  1.032863  0.0
H  H66  1  0.03961448  0.42113495  0.43308445  1  0.088564  5.2e-05  0.100998  0.113905  6.1e-05  1.033632  0.0
H  H67  1  0.60613156  0.56713203  0.98817536  1  0.090536  5.2e-05  0.101094  0.114094  6.1e-05  1.03298  0.0
H  H68  1  0.61808005  0.01172139  0.57893839  1  0.090075  5.3e-05  0.10066  0.113281  6.1e-05  1.032888  0.0
H  H69  1  0.81023939  0.65808181  0.65227565  1  0.076029  5.4e-05  0.108082  0.080969  7.1e-05  1.012837  0.0
H  H70  1  0.15840281  0.34755961  0.00573203  1  0.087124  5.4e-05  0.108174  0.079643  7e-05  1.012369  0.0
H  H71  1  0.15257273  0.99437352  0.34180779  1  0.089814  5.3e-05  0.108189  0.080861  6.9e-05  1.011104  0.0
H  H72  1  0.18976012  0.34192527  0.34771914  1  0.076035  5.3e-05  0.108137  0.081052  7.1e-05  1.012885  0.0
H  H73  1  0.84160413  0.65244508  0.99427704  1  0.087016  5.4e-05  0.108171  0.079596  7e-05  1.01232  0.0
H  H74  1  0.84742152  0.00562100  0.65819153  1  0.08985  5.3e-05  0.108164  0.080836  6.9e-05  1.011154  0.0
C  C75  1  0.24353192  0.51770896  0.58385483  1  0.436365  -0.000837  0.088171  0.179573  -0.00017  4.057613  -0.001
C  C76  1  0.65961927  0.41612923  0.93382946  1  0.434239  -0.000797  0.088792  0.179979  -0.000176  4.055431  -0.001
C  C77  1  0.72583266  0.06616262  0.48230580  1  0.435441  -0.000842  0.088431  0.17842  -0.000168  4.055741  -0.001
C  C78  1  0.75646725  0.48229095  0.41614071  1  0.436171  -0.000838  0.088212  0.179753  -0.000171  4.057562  -0.001
C  C79  1  0.34038691  0.58387606  0.06617472  1  0.434052  -0.000799  0.088753  0.180093  -0.000177  4.05538  -0.001
C  C80  1  0.27416885  0.93383549  0.51769267  1  0.435186  -0.000843  0.088408  0.178406  -0.000169  4.055801  -0.001
C  C81  1  0.13978285  0.47367050  0.60650977  1  -0.071326  -0.004323  -0.10724  -0.185386  -0.002512  3.985774  -0.003
C  C82  1  0.53312364  0.39350796  0.86716714  1  -0.048523  -0.004342  -0.107223  -0.184853  -0.002518  3.987984  -0.003
C  C83  1  0.66604632  0.13280939  0.52642359  1  -0.131994  -0.004364  -0.107068  -0.183634  -0.002519  3.986871  -0.003
C  C84  1  0.86020999  0.52632761  0.39348241  1  -0.071458  -0.004325  -0.107292  -0.18555  -0.002512  3.985845  -0.003
C  C85  1  0.46688242  0.60649494  0.13283644  1  -0.048535  -0.004341  -0.107281  -0.184948  -0.002517  3.987983  -0.003
C  C86  1  0.33395686  0.86718992  0.47357913  1  -0.131817  -0.004364  -0.107054  -0.183691  -0.002519  3.986717  -0.003
C  C87  1  0.15523795  0.39752194  0.57277748  1  -0.097948  -0.003482  -0.106775  -0.184969  -0.00189  3.982982  -0.003
C  C88  1  0.58225999  0.42731053  0.82479349  1  -0.141706  -0.003519  -0.108019  -0.187865  -0.001895  3.985739  -0.003
C  C89  1  0.75745141  0.17510291  0.60260325  1  -0.06542  -0.003494  -0.106707  -0.184757  -0.001887  3.984537  -0.003
C  C90  1  0.84476149  0.60247856  0.42722244  1  -0.097825  -0.003483  -0.106745  -0.18492  -0.00189  3.982939  -0.003
C  C91  1  0.41773906  0.57269357  0.17520959  1  -0.14175  -0.003519  -0.107927  -0.187807  -0.001895  3.985636  -0.003
C  C92  1  0.24254851  0.82489640  0.39739769  1  -0.065259  -0.003493  -0.106684  -0.184702  -0.001887  3.98453  -0.003
C  C93  1  0.26888030  0.39493532  0.52963053  1  0.436284  -0.00127  0.089989  0.18361  -0.000404  4.066213  -0.001
C  C94  1  0.73905335  0.47043472  0.86533519  1  0.447988  -0.001214  0.090334  0.184837  -0.000408  4.067164  -0.001
C  C95  1  0.87368860  0.13453101  0.60514281  1  0.451771  -0.001193  0.08964  0.182572  -0.000403  4.065074  -0.001
C  C96  1  0.73111666  0.60506459  0.47036943  1  0.436464  -0.001267  0.089985  0.183679  -0.000402  4.066316  -0.001
C  C97  1  0.26095084  0.52956878  0.13466801  1  0.448266  -0.001212  0.090358  0.184971  -0.000407  4.067174  -0.001
C  C98  1  0.12631103  0.86546770  0.39485630  1  0.451469  -0.001192  0.089618  0.182571  -0.000402  4.06526  -0.001
C  C99  1  0.32178126  0.32764036  0.49000164  1  0.022174  -0.000638  -0.000114  -0.078713  -0.000106  3.951547  -0.001
C  C100  1  0.83159022  0.51006945  0.83768812  1  0.026294  -0.000636  0.000282  -0.078322  -0.000105  3.954292  -0.001
C  C101  1  0.99394132  0.16218345  0.67240572  1  0.009187  -0.000635  0.001311  -0.076336  -0.000103  3.949189  -0.001
C  C102  1  0.67821759  0.67235895  0.50999615  1  0.022283  -0.000639  -8.1e-05  -0.078777  -0.000106  3.951591  -0.001
C  C103  1  0.16841496  0.48993165  0.16231303  1  0.025871  -0.000637  0.000247  -0.078433  -0.000106  3.954477  -0.001
C  C104  1  0.00606107  0.83781646  0.32759568  1  0.009072  -0.000635  0.00139  -0.076271  -0.000103  3.949041  -0.001
C  C105  1  0.43729638  0.32384708  0.45142693  1  0.430961  -0.001195  0.090567  0.184107  -0.000402  4.05374  -0.001
C  C106  1  0.98567136  0.54866544  0.87249800  1  0.422598  -0.001233  0.09134  0.184699  -0.000407  4.05516  -0.001
C  C107  1  0.11333464  0.12747100  0.67620348  1  0.447472  -0.001183  0.089908  0.182743  -0.000409  4.054696  -0.001
C  C108  1  0.56270554  0.67615402  0.54857141  1  0.430257  -0.001196  0.090584  0.184259  -0.000401  4.053771  -0.001
C  C109  1  0.01433580  0.45133745  0.12750362  1  0.422496  -0.001232  0.091279  0.18452  -0.000406  4.055208  -0.001
C  C110  1  0.88666467  0.87252712  0.32379788  1  0.447526  -0.001182  0.089811  0.182625  -0.000408  4.054645  -0.001
C  C111  1  0.48835022  0.25279145  0.41095732  1  -0.090106  -0.003206  -0.102984  -0.175215  -0.001665  3.968661  -0.003
C  C112  1  0.07722039  0.58917481  0.84195285  1  -0.043494  -0.003178  -0.103798  -0.176127  -0.001671  3.971596  -0.003
C  C113  1  0.23545231  0.15808743  0.74725661  1  -0.061125  -0.003203  -0.103453  -0.176256  -0.001662  3.968864  -0.003
C  C114  1  0.51165418  0.74721025  0.58904149  1  -0.089963  -0.003206  -0.102987  -0.175291  -0.001665  3.968543  -0.003
C  C115  1  0.92278648  0.41082748  0.15804847  1  -0.044257  -0.00318  -0.103773  -0.176009  -0.001672  3.971607  -0.003
C  C116  1  0.76454174  0.84190889  0.25274608  1  -0.061352  -0.003203  -0.103396  -0.1761  -0.001663  3.968708  -0.003
C  C117  1  0.60293693  0.27287804  0.38249333  1  -0.036781  -0.004032  -0.106651  -0.183402  -0.00231  3.986263  -0.003
C  C118  1  0.22020663  0.61767842  0.89055287  1  -0.077052  -0.004045  -0.106747  -0.185155  -0.002311  3.98819  -0.003
C  C119  1  0.32990752  0.10950739  0.72715764  1  -0.054694  -0.004017  -0.107405  -0.186327  -0.002314  3.986446  -0.003
C  C120  1  0.39706233  0.72712425  0.61750587  1  -0.036723  -0.004031  -0.106673  -0.183501  -0.00231  3.986244  -0.003
C  C121  1  0.77980180  0.38232268  0.10945057  1  -0.076468  -0.004046  -0.10665  -0.185014  -0.002311  3.988137  -0.003
C  C122  1  0.67008456  0.89048714  0.27284254  1  -0.054459  -0.004016  -0.10743  -0.186372  -0.002313  3.986506  -0.003
C  C123  1  0.62176514  0.35615307  0.40510388  1  0.401371  -0.000927  0.088478  0.175946  -0.000195  4.062346  -0.001
C  C124  1  0.21637917  0.59500009  0.95117796  1  0.401282  -0.000903  0.088662  0.175973  -0.000179  4.061468  -0.001
C  C125  1  0.26541711  0.04881478  0.64387824  1  0.418443  -0.000877  0.089139  0.17752  -0.000186  4.059118  -0.001
C  C126  1  0.37823502  0.64385102  0.59489571  1  0.401232  -0.000929  0.088496  0.176114  -0.000196  4.062486  -0.001
C  C127  1  0.78362580  0.40500281  0.04882655  1  0.401271  -0.000905  0.088633  0.175981  -0.000179  4.061553  -0.001
C  C128  1  0.73457776  0.95118095  0.35611964  1  0.418334  -0.000878  0.089157  0.177643  -0.000186  4.059165  -0.001
C  C129  1  0.26729610  0.59979760  0.61073240  1  -0.013318  -0.000807  -0.00188  -0.082326  -0.000207  3.951374  -0.001
C  C130  1  0.65679391  0.38914869  0.98896379  1  0.003579  -0.000805  -0.002644  -0.082609  -0.00021  3.950091  -0.001
C  C131  1  0.66774818  0.01109124  0.40017409  1  -0.010425  -0.000819  -0.003469  -0.08331  -0.000207  3.950938  -0.001
C  C132  1  0.73270395  0.40020410  0.38926454  1  -0.013362  -0.000809  -0.001928  -0.082371  -0.000208  3.951308  -0.001
C  C133  1  0.34320571  0.61085660  0.01104295  1  0.003666  -0.000805  -0.00259  -0.082635  -0.00021  3.95018  -0.001
C  C134  1  0.33224807  0.98890509  0.59982570  1  -0.010752  -0.000819  -0.003493  -0.083295  -0.000207  3.950916  -0.001
C  C135  1  0.05442456  0.13438042  0.43995689  1  0.535178  0.00036  0.04631  0.108912  0.00038  3.972267  0.0
C  C136  1  0.61465647  0.56018452  0.69448244  1  0.552914  0.00036  0.046417  0.109374  0.000381  3.974012  0.0
C  C137  1  0.91984234  0.30548876  0.86564731  1  0.494467  0.000369  0.046429  0.108537  0.00039  3.972519  0.0
C  C138  1  0.94557540  0.86561889  0.56003587  1  0.534424  0.00036  0.046328  0.10903  0.00038  3.972414  0.0
C  C139  1  0.38534652  0.43981658  0.30551957  1  0.553061  0.00036  0.046378  0.109283  0.000381  3.97408  0.0
C  C140  1  0.08016350  0.69450936  0.13435558  1  0.496263  0.000369  0.046476  0.108594  0.00039  3.972502  0.0
C  C141  1  0.10946232  0.20513844  0.44046720  1  -0.05446  -0.000142  -0.081018  -0.174233  -7.7e-05  3.926526  0.0
C  C142  1  0.66912201  0.55967930  0.76474333  1  -0.076769  -0.000143  -0.081529  -0.174478  -7.7e-05  3.925899  0.0
C  C143  1  0.90408973  0.23521441  0.79489135  1  0.022122  -0.000143  -0.081471  -0.17418  -7.5e-05  3.924906  0.0
C  C144  1  0.89053656  0.79486087  0.55952599  1  -0.05405  -0.000142  -0.081022  -0.174295  -7.7e-05  3.926623  0.0
C  C145  1  0.33088317  0.44032181  0.23525731  1  -0.078849  -0.000143  -0.081488  -0.174377  -7.7e-05  3.925893  0.0
C  C146  1  0.09591521  0.76478191  0.20511166  1  0.02032  -0.000143  -0.081392  -0.174072  -7.5e-05  3.924779  0.0
C  C147  1  0.25294217  0.25364262  0.48983286  1  -0.035577  0.000462  0.011813  0.126105  0.000515  4.012316  0.0
C  C148  1  0.76302180  0.51022109  0.76385168  1  -0.066944  0.000462  0.012283  0.126415  0.000514  4.013604  0.0
C  C149  1  0.99912859  0.23603464  0.74639465  1  -0.008817  0.000465  0.011267  0.125345  0.000518  4.013558  0.0
C  C150  1  0.74705778  0.74635669  0.51016297  1  -0.035446  0.000461  0.011775  0.126028  0.000514  4.012499  0.0
C  C151  1  0.23698526  0.48977942  0.23614831  1  -0.066594  0.000462  0.012252  0.126359  0.000515  4.013696  0.0
C  C152  1  0.00087380  0.76396527  0.25360880  1  -0.008897  0.000464  0.011252  0.12528  0.000518  4.01354  0.0
C  C153  1  0.33291786  0.22921966  0.53764860  1  0.005562  -0.000196  -0.089056  -0.19346  -0.000129  3.962273  0.0
C  C154  1  0.79514945  0.46234421  0.69160729  1  -0.001651  -0.000194  -0.089034  -0.19278  -0.000129  3.962635  0.0
C  C155  1  0.10351165  0.30825490  0.77076976  1  -0.077621  -0.000197  -0.089442  -0.193821  -0.00013  3.963149  0.0
C  C156  1  0.66708614  0.77077905  0.46234727  1  0.005606  -0.000196  -0.089  -0.193316  -0.000129  3.962228  0.0
C  C157  1  0.20486146  0.53765749  0.30839458  1  -0.002152  -0.000194  -0.089026  -0.192641  -0.000129  3.962672  0.0
C  C158  1  0.89648798  0.69174381  0.22922935  1  -0.077209  -0.000197  -0.089425  -0.193777  -0.000129  3.963171  0.0
C  C159  1  0.26808871  0.15758605  0.53321592  1  0.507057  0.000329  0.041528  0.098252  0.000347  3.994428  0.0
C  C160  1  0.73481918  0.46678615  0.62440525  1  0.535684  0.000327  0.041376  0.097859  0.000346  3.996758  0.0
C  C161  1  0.11027973  0.37549222  0.84238509  1  0.514236  0.000326  0.040911  0.097374  0.000344  3.993733  0.0
C  C162  1  0.73191392  0.84241207  0.46677803  1  0.507346  0.000329  0.041558  0.098298  0.000347  3.994272  0.0
C  C163  1  0.26519035  0.53321495  0.37559521  1  0.536221  0.000327  0.041363  0.097753  0.000347  3.997012  0.0
C  C164  1  0.88971753  0.62450828  0.15761466  1  0.514082  0.000326  0.040868  0.097276  0.000344  3.993776  0.0
C  C165  1  0.13946890  0.74535996  0.78306822  1  0.459956  -6.4e-05  0.035155  0.085463  -4.3e-05  4.039014  0.0
C  C166  1  0.35676889  0.21675508  0.96214898  1  0.496763  -6.1e-05  0.035257  0.084543  -4.1e-05  4.03759  0.0
C  C167  1  0.39461604  0.03791529  0.25459066  1  0.500818  -6.4e-05  0.035166  0.083998  -4.3e-05  4.036017  0.0
C  C168  1  0.86052947  0.25464054  0.21692804  1  0.460045  -6.4e-05  0.035184  0.085455  -4.3e-05  4.038865  0.0
C  C169  1  0.64323866  0.78325081  0.03785916  1  0.496885  -6.1e-05  0.03532  0.084682  -4.1e-05  4.037657  0.0
C  C170  1  0.60537723  0.96208163  0.74541071  1  0.501649  -6.4e-05  0.035114  0.083856  -4.3e-05  4.036092  0.0
C  C171  1  0.23359940  0.70515914  0.73954573  1  -0.047781  -5.7e-05  -0.092543  -0.196148  -3.6e-05  3.968426  0.0
C  C172  1  0.49441248  0.26025897  0.96545302  1  -0.120187  -5.5e-05  -0.092725  -0.197196  -3.2e-05  3.969445  0.0
C  C173  1  0.52892963  0.03459059  0.29478851  1  -0.077391  -5.6e-05  -0.091891  -0.193693  -3.5e-05  3.966325  0.0
C  C174  1  0.76639837  0.29484017  0.26044993  1  -0.047631  -5.7e-05  -0.092494  -0.196093  -3.6e-05  3.968338  0.0
C  C175  1  0.50558982  0.73974512  0.03455235  1  -0.120077  -5.5e-05  -0.092716  -0.197204  -3.2e-05  3.969612  0.0
C  C176  1  0.47106375  0.96540872  0.70521448  1  -0.077886  -5.6e-05  -0.091821  -0.193575  -3.5e-05  3.966183  0.0
C  C177  1  0.17115964  0.64349234  0.65989156  1  0.013124  0.000146  0.004771  0.118036  0.00016  4.006828  0.0
C  C178  1  0.51164048  0.33990988  0.98348837  1  0.057968  0.000143  0.00609  0.12099  0.000157  4.005983  0.0
C  C179  1  0.52807314  0.01660681  0.35644453  1  -0.00339  0.000146  0.005146  0.118376  0.00016  4.005859  0.0
C  C180  1  0.82883873  0.35650817  0.34010419  1  0.012782  0.000146  0.004776  0.117955  0.00016  4.007098  0.0
C  C181  1  0.48836333  0.66009721  0.01651646  1  0.05839  0.000143  0.00615  0.121071  0.000157  4.006172  0.0
C  C182  1  0.47192122  0.98339011  0.64355590  1  -0.00318  0.000146  0.005204  0.118505  0.00016  4.005649  0.0
C  C183  1  0.01537668  0.62587530  0.62845320  1  -0.086726  7.9e-05  -0.090686  -0.185694  9.8e-05  3.933222  0.0
C  C184  1  0.38729824  0.37133785  0.99730298  1  -0.091583  7.5e-05  -0.092003  -0.188515  9.5e-05  3.93842  0.0
C  C185  1  0.38989861  0.00281067  0.37405631  1  -0.072124  7.7e-05  -0.090529  -0.185373  9.7e-05  3.93496  0.0
C  C186  1  0.98461982  0.37412580  0.37154166  1  -0.08691  7.9e-05  -0.090717  -0.185649  9.8e-05  3.933379  0.0
C  C187  1  0.61270605  0.62866804  0.00270286  1  -0.092483  7.5e-05  -0.091988  -0.188571  9.5e-05  3.938545  0.0
C  C188  1  0.61010100  0.99718804  0.62594688  1  -0.072241  7.8e-05  -0.090624  -0.185602  9.7e-05  3.935072  0.0
C  C189  1  0.93129587  0.67053041  0.67661122  1  0.51091  1.2e-05  0.034805  0.089643  1.5e-05  4.002596  0.0
C  C190  1  0.25512112  0.32321417  0.99383290  1  0.493722  1.3e-05  0.035264  0.092218  1.6e-05  4.00566  0.0
C  C191  1  0.26120182  0.00627838  0.32936873  1  0.49929  1.2e-05  0.034964  0.089794  1.5e-05  4.004683  0.0
C  C192  1  0.06870154  0.32947249  0.32338198  1  0.511238  1.2e-05  0.034624  0.089275  1.5e-05  4.002546  0.0
C  C193  1  0.74488255  0.67679052  0.00617592  1  0.494765  1.3e-05  0.035272  0.0923  1.6e-05  4.00568  0.0
C  C194  1  0.73879502  0.99371914  0.67063370  1  0.499533  1.2e-05  0.035053  0.08993  1.4e-05  4.004621  0.0
N  N195  1  0.51878187  0.38566026  0.44643979  1  -1.156688  -0.091167  -0.368983  -0.358646  -0.059743  3.472551  -0.079
N  N196  1  0.07212118  0.55360527  0.93927632  1  -1.151888  -0.091128  -0.368973  -0.357771  -0.059742  3.475086  -0.079
N  N197  1  0.13299784  0.06067209  0.61437674  1  -1.189484  -0.091218  -0.36819  -0.357476  -0.059723  3.472871  -0.079
N  N198  1  0.48122076  0.61434443  0.55356027  1  -1.15644  -0.091158  -0.369053  -0.35884  -0.059738  3.472709  -0.079
N  N199  1  0.92788259  0.44639523  0.06072649  1  -1.151435  -0.091132  -0.368953  -0.357686  -0.059744  3.47513  -0.079
N  N200  1  0.86699872  0.93932482  0.38562130  1  -1.189592  -0.091216  -0.368224  -0.357595  -0.059722  3.473061  -0.079
N  N201  1  0.31994783  0.46832701  0.53654454  1  -1.151476  -0.092812  -0.367655  -0.356935  -0.060834  3.466652  -0.08
N  N202  1  0.78327670  0.46349612  0.93179494  1  -1.172715  -0.092895  -0.36725  -0.356914  -0.060807  3.464753  -0.08
N  N203  1  0.85148279  0.06814139  0.53169199  1  -1.150883  -0.092825  -0.36746  -0.356055  -0.060833  3.465163  -0.08
N  N204  1  0.68005322  0.53167230  0.46344933  1  -1.151643  -0.092819  -0.3677  -0.357049  -0.060838  3.466993  -0.08
N  N205  1  0.21672767  0.53650558  0.06820898  1  -1.17276  -0.092896  -0.367238  -0.357005  -0.060808  3.464893  -0.08
N  N206  1  0.14851951  0.93185613  0.46830677  1  -1.150776  -0.092822  -0.367505  -0.356105  -0.060831  3.465294  -0.08
N  N207  1  0.13189425  0.11048452  0.48485898  1  -1.21981  0.00187  -0.324922  -0.27398  0.002095  3.492221  0.001
N  N208  1  0.64712060  0.51520227  0.62566218  1  -1.232711  0.001868  -0.325066  -0.274548  0.002094  3.495456  0.001
N  N209  1  0.02123064  0.37428499  0.88951952  1  -1.232013  0.00186  -0.324306  -0.272493  0.002088  3.489521  0.001
N  N210  1  0.86810620  0.88951359  0.51513429  1  -1.219934  0.00187  -0.324982  -0.274174  0.002095  3.492474  0.001
N  N211  1  0.35288339  0.48479644  0.37433675  1  -1.233043  0.001868  -0.32503  -0.274476  0.002094  3.495563  0.001
N  N212  1  0.97877176  0.62571491  0.11048239  1  -1.232016  0.00186  -0.324304  -0.272483  0.002089  3.489505  0.001
N  N213  1  0.99037583  0.72933848  0.75282678  1  -1.174059  3e-05  -0.339057  -0.288007  4.1e-05  3.299449  0.0
N  N214  1  0.23794594  0.24700466  0.97641660  1  -1.184782  2.6e-05  -0.339333  -0.288176  3.7e-05  3.299065  0.0
N  N215  1  0.26151322  0.02368072  0.27057523  1  -1.188762  3.1e-05  -0.339011  -0.287336  4.3e-05  3.2984  0.0
N  N216  1  0.00962406  0.27066502  0.24716638  1  -1.174336  3e-05  -0.338954  -0.287762  4.1e-05  3.299114  0.0
N  N217  1  0.76205942  0.75300123  0.02359189  1  -1.185208  2.6e-05  -0.339389  -0.288275  3.7e-05  3.299229  0.0
N  N218  1  0.73848084  0.97631560  0.72942695  1  -1.189176  3.1e-05  -0.33901  -0.287302  4.3e-05  3.298328  0.0
