# generated using pymatgen
data_CdCuH22C26N4(ClO)2
_symmetry_space_group_name_H-M   'P 1'
_cell_length_a   7.14002237
_cell_length_b   14.42120561
_cell_length_c   15.53516643
_cell_angle_alpha   117.72577196
_cell_angle_beta   98.24215683
_cell_angle_gamma   90.02522432
_symmetry_Int_Tables_number   1
_chemical_formula_structural   CdCuH22C26N4(ClO)2
_chemical_formula_sum   'Cd2 Cu2 H44 C52 N8 Cl4 O4'
_cell_volume   1397.21300108
_cell_formula_units_Z   2
loop_
 _symmetry_equiv_pos_site_id
 _symmetry_equiv_pos_as_xyz
  1  'x, y, z'
loop_
 _atom_site_type_symbol
 _atom_site_label
 _atom_site_symmetry_multiplicity
 _atom_site_fract_x
 _atom_site_fract_y
 _atom_site_fract_z
 _atom_site_occupancy
 _atom_site_pbe_bader_charge
 _atom_site_pbe_bader_spin_density
 _atom_site_pbe_cm5_charge
 _atom_site_pbe_ddec_charge
 _atom_site_pbe_ddec_spin_density
 _atom_site_pbe_ddec_sum_bond_order
 _atom_site_pbe_magmom
Cd  Cd0  1  0.75008827  0.94084017  0.00036040  1  1.147223  0.000477  0.592465  0.747207  0.0003  2.461228  0.0
Cd  Cd1  1  0.24990352  0.05915842  0.99963683  1  1.147168  0.000477  0.592451  0.747179  0.0003  2.46128  0.0
Cu  Cu2  1  0.50000387  0.00000059  0.49999954  1  1.009424  0.532174  0.717769  0.69761  0.701957  2.301375  0.534
Cu  Cu3  1  0.99999697  0.50000246  0.50000032  1  1.016759  0.532293  0.71733  0.696954  0.702085  2.303369  0.534
H  H4  1  0.53322461  0.35241485  0.66603434  1  0.013163  -0.000213  0.094142  0.101938  -0.000185  1.01937  0.0
H  H5  1  0.96680346  0.68608205  0.33420196  1  0.016985  -0.000214  0.094192  0.101672  -0.000185  1.019236  0.0
H  H6  1  0.46677872  0.64758423  0.33396496  1  0.013173  -0.000213  0.094152  0.101958  -0.000185  1.019297  0.0
H  H7  1  0.03319694  0.31391858  0.66579810  1  0.017132  -0.000214  0.094204  0.101651  -0.000185  1.019257  0.0
H  H8  1  0.46274183  0.47888302  0.60026749  1  0.034233  0.000885  0.095592  0.086302  0.000431  1.028217  0.001
H  H9  1  0.03735478  0.87848440  0.39999117  1  0.073911  0.000885  0.09547  0.0865  0.000429  1.028689  0.001
H  H10  1  0.53726150  0.52111671  0.39973246  1  0.034221  0.000884  0.095591  0.08631  0.000431  1.028258  0.001
H  H11  1  0.96264421  0.12151678  0.60000945  1  0.073904  0.000886  0.09542  0.086409  0.000429  1.028636  0.001
H  H12  1  0.35072586  0.41430790  0.42121334  1  0.044543  -0.000279  0.089568  0.080532  -0.00041  1.068189  0.0
H  H13  1  0.14944062  0.99342091  0.57907384  1  0.016027  -0.000281  0.089563  0.080431  -0.00041  1.068271  0.0
H  H14  1  0.64927626  0.58569021  0.57878655  1  0.044511  -0.000279  0.089554  0.080527  -0.00041  1.06817  0.0
H  H15  1  0.85055523  0.00658270  0.42092684  1  0.0157  -0.000282  0.089556  0.080443  -0.00041  1.068304  0.0
H  H16  1  0.30461792  0.22143090  0.30823173  1  0.079145  0.000392  0.09643  0.10022  0.000229  1.010841  0.0
H  H17  1  0.19501238  0.91374384  0.69202866  1  0.081128  0.000392  0.096195  0.100061  0.000229  1.011623  0.0
H  H18  1  0.69538279  0.77856841  0.69176936  1  0.079132  0.000392  0.096421  0.100231  0.000229  1.010806  0.0
H  H19  1  0.80498357  0.08625934  0.30797237  1  0.081142  0.000392  0.096185  0.099985  0.000229  1.011784  0.0
H  H20  1  0.30340675  0.05337153  0.27775375  1  0.122098  0.008774  0.103411  0.079169  0.004587  1.034801  0.006
H  H21  1  0.19588846  0.77632288  0.72249922  1  0.120146  0.008801  0.10295  0.079123  0.004583  1.035717  0.006
H  H22  1  0.69659255  0.94662704  0.72224661  1  0.122071  0.008774  0.103389  0.079151  0.004587  1.034809  0.006
H  H23  1  0.80411053  0.22367830  0.27750139  1  0.120154  0.008802  0.102951  0.079169  0.004584  1.035656  0.006
H  H24  1  0.23384112  0.88980934  0.23004258  1  0.05112  0.004398  0.099631  0.082822  0.002243  1.013667  0.002
H  H25  1  0.26599535  0.66048908  0.77006474  1  0.060016  0.004363  0.099448  0.082338  0.002234  1.013384  0.002
H  H26  1  0.76616090  0.11018985  0.76995762  1  0.051102  0.004398  0.099624  0.08279  0.002244  1.01371  0.002
H  H27  1  0.73400233  0.33951093  0.22993548  1  0.059992  0.004362  0.09946  0.082318  0.002234  1.01341  0.002
H  H28  1  0.32594949  0.82708450  0.30196784  1  0.10017  0.001102  0.107578  0.101163  0.000521  1.01321  0.002
H  H29  1  0.17363018  0.52566833  0.69812964  1  0.106763  0.001106  0.107416  0.101112  0.000525  1.012857  0.002
H  H30  1  0.67405252  0.17291405  0.69803171  1  0.100201  0.001103  0.107588  0.10114  0.000521  1.013229  0.002
H  H31  1  0.82637000  0.47433125  0.30186780  1  0.106782  0.001106  0.107413  0.101074  0.000524  1.01288  0.002
H  H32  1  0.66944538  0.78643646  0.30918594  1  0.138189  7.1e-05  0.108801  0.117734  0.000123  1.038327  0.0
H  H33  1  0.83069736  0.47763288  0.69105207  1  0.146  6.6e-05  0.108907  0.117398  0.000123  1.039479  0.0
H  H34  1  0.33056070  0.21356711  0.69081707  1  0.138265  7e-05  0.108812  0.117727  0.000123  1.038327  0.0
H  H35  1  0.16930356  0.52236490  0.30894907  1  0.146006  6.6e-05  0.108923  0.117437  0.000123  1.039435  0.0
H  H36  1  0.94891296  0.74628124  0.21738602  1  0.06358  3e-06  0.10686  0.109498  -1e-05  1.005684  0.0
H  H37  1  0.55117949  0.52909651  0.78283516  1  0.072804  2e-06  0.106771  0.109436  -1e-05  1.005549  0.0
H  H38  1  0.05109312  0.25372234  0.78261699  1  0.063599  3e-06  0.106865  0.109513  -1e-05  1.005614  0.0
H  H39  1  0.44882122  0.47090216  0.21716529  1  0.072875  2e-06  0.106759  0.109442  -1e-05  1.005598  0.0
H  H40  1  0.95374430  0.80525812  0.08917430  1  0.105332  0.000139  0.107001  0.081402  9.1e-05  1.013471  0.0
H  H41  1  0.54617432  0.71653815  0.91119296  1  0.092848  0.000139  0.107213  0.081179  9e-05  1.013295  0.0
H  H42  1  0.04625915  0.19474310  0.91082792  1  0.105339  0.000139  0.107006  0.081397  9.1e-05  1.01353  0.0
H  H43  1  0.45382303  0.28346189  0.08880494  1  0.093001  0.000139  0.107206  0.081166  9e-05  1.013315  0.0
H  H44  1  0.42919752  0.92589162  0.13006455  1  0.141447  0.000106  0.097214  0.080164  8.2e-05  1.064662  0.0
H  H45  1  0.07035145  0.79682495  0.87023870  1  0.135345  0.000106  0.09719  0.079753  8.2e-05  1.065878  0.0
H  H46  1  0.57080460  0.07410585  0.86993470  1  0.141443  0.000106  0.097202  0.080119  8.2e-05  1.064703  0.0
H  H47  1  0.92964611  0.20317356  0.12975925  1  0.135398  0.000106  0.097178  0.079727  8.2e-05  1.065914  0.0
C  C48  1  0.45718337  0.21454353  0.52541357  1  0.72887  0.000353  0.097688  0.334205  0.000699  4.080408  -0.001
C  C49  1  0.04278991  0.68914235  0.47477016  1  0.603423  0.00083  0.097439  0.334036  0.00069  4.081856  -0.001
C  C50  1  0.54282137  0.78545564  0.47458583  1  0.728857  0.000354  0.09765  0.334174  0.000699  4.080496  -0.001
C  C51  1  0.95720626  0.31086059  0.52523220  1  0.603563  0.000831  0.097435  0.33406  0.00069  4.081758  -0.001
C  C52  1  0.48280999  0.32497281  0.58779401  1  -0.07357  0.011219  -0.115695  -0.225826  0.007921  3.969547  0.009
C  C53  1  0.01719546  0.73707117  0.41243381  1  0.00626  0.010822  -0.115393  -0.223959  0.007908  3.969779  0.009
C  C54  1  0.51719487  0.67502721  0.41220702  1  -0.073571  0.011218  -0.115694  -0.225868  0.00792  3.969533  0.009
C  C55  1  0.98280080  0.26292875  0.58756632  1  0.006325  0.010822  -0.11542  -0.223925  0.007908  3.96986  0.009
C  C56  1  0.44489550  0.39460470  0.55051386  1  -0.03498  -0.000862  -0.087572  -0.035151  -0.001524  4.029638  0.0
C  C57  1  0.05514833  0.84408459  0.44974135  1  -0.093207  -0.000866  -0.087443  -0.036887  -0.001532  4.031498  0.0
C  C58  1  0.55510783  0.60539439  0.44948544  1  -0.034963  -0.000862  -0.087583  -0.035145  -0.001524  4.029697  0.0
C  C59  1  0.94484894  0.15591911  0.55025942  1  -0.093343  -0.000865  -0.087415  -0.036801  -0.001532  4.031551  0.0
C  C60  1  0.38135008  0.35860206  0.44938498  1  -0.009754  -0.000588  -0.118094  -0.144647  -0.000918  4.07446  0.0
C  C61  1  0.11865281  0.90946493  0.55087852  1  0.029944  -0.00058  -0.118946  -0.144478  -0.00091  4.074065  0.0
C  C62  1  0.61865052  0.64139641  0.55061448  1  -0.009802  -0.000588  -0.118087  -0.14467  -0.000918  4.074447  0.0
C  C63  1  0.88134194  0.09053598  0.44912182  1  0.030086  -0.00058  -0.118925  -0.144511  -0.000911  4.073974  0.0
C  C64  1  0.35489642  0.25167808  0.38699346  1  -0.097525  -0.002182  -0.084506  -0.080883  -0.002387  3.982411  -0.001
C  C65  1  0.14486835  0.86507062  0.61325866  1  -0.124752  -0.002178  -0.083714  -0.080603  -0.002387  3.982595  -0.001
C  C66  1  0.64510559  0.74832047  0.61300609  1  -0.097484  -0.002182  -0.08447  -0.080875  -0.002387  3.982463  -0.001
C  C67  1  0.85512446  0.13493369  0.38674114  1  -0.124536  -0.002178  -0.083696  -0.080523  -0.002387  3.982724  -0.001
C  C68  1  0.39197184  0.17831040  0.42276610  1  0.028809  0.005422  -0.035328  -0.08205  0.003516  4.031695  0.005
C  C69  1  0.10774265  0.75583129  0.57744469  1  0.106177  0.005287  -0.036141  -0.082615  0.003514  4.032355  0.005
C  C70  1  0.60802877  0.82168871  0.57723401  1  0.028863  0.005422  -0.035337  -0.082102  0.003515  4.031886  0.005
C  C71  1  0.89225079  0.24417038  0.42255719  1  0.10582  0.005287  -0.036134  -0.082582  0.003514  4.032437  0.005
C  C72  1  0.36151924  0.06955388  0.35332729  1  0.536152  -0.004257  0.070521  0.111866  -0.005679  3.946169  -0.003
C  C73  1  0.13801127  0.71671209  0.64689247  1  0.544263  -0.004264  0.071217  0.11191  -0.005679  3.947966  -0.003
C  C74  1  0.63848006  0.93044470  0.64667307  1  0.536223  -0.004257  0.070558  0.111904  -0.005679  3.946084  -0.003
C  C75  1  0.86198479  0.28329064  0.35310891  1  0.544498  -0.004263  0.07118  0.111766  -0.005678  3.948113  -0.003
C  C76  1  0.35723130  0.88610215  0.27933946  1  0.258422  0.005184  -0.072258  -0.092822  0.004059  3.943045  0.004
C  C77  1  0.14245136  0.60737620  0.72080895  1  0.253186  0.005223  -0.071848  -0.091936  0.004076  3.941803  0.004
C  C78  1  0.64276799  0.11389642  0.72066090  1  0.258415  0.005184  -0.072271  -0.092821  0.004059  3.943124  0.004
C  C79  1  0.85754610  0.39262340  0.27918929  1  0.253138  0.005222  -0.071815  -0.091754  0.004076  3.941742  0.004
C  C80  1  0.52654085  0.85791912  0.22607135  1  -0.00108  0.000558  -0.002486  0.070046  0.000311  3.909625  0.0
C  C81  1  0.97326520  0.63252191  0.77414732  1  0.002908  0.000567  -0.002685  0.069892  0.000318  3.911413  0.0
C  C82  1  0.47346280  0.14207929  0.77392963  1  -0.001136  0.000558  -0.00253  0.070024  0.000311  3.909635  0.0
C  C83  1  0.02673389  0.36747819  0.22585300  1  0.0029  0.000567  -0.002663  0.069887  0.000317  3.911513  0.0
C  C84  1  0.67561456  0.80694661  0.25034740  1  0.003115  0.000865  -0.068574  -0.08406  0.000484  3.916711  0.001
C  C85  1  0.82436651  0.55706750  0.74988488  1  -0.112554  0.00088  -0.068198  -0.082567  0.000489  3.91768  0.001
C  C86  1  0.32439030  0.19305406  0.74965427  1  0.002735  0.000865  -0.068569  -0.084052  0.000484  3.916739  0.001
C  C87  1  0.17563127  0.44293078  0.25011439  1  -0.11253  0.000879  -0.068229  -0.082626  0.000488  3.917792  0.001
C  C88  1  0.83048019  0.78591530  0.20044088  1  -0.096538  -1e-05  -0.089705  -0.131633  -3.4e-05  4.006901  0.0
C  C89  1  0.66953049  0.58584287  0.79981069  1  -0.010705  -1.5e-05  -0.089398  -0.132608  -3.6e-05  4.007845  0.0
C  C90  1  0.16952599  0.21408654  0.79956119  1  -0.096202  -1e-05  -0.08967  -0.131567  -3.4e-05  4.006816  0.0
C  C91  1  0.33046991  0.41415777  0.20018937  1  -0.010743  -1.5e-05  -0.089354  -0.132589  -3.6e-05  4.007732  0.0
C  C92  1  0.83416134  0.81783977  0.12887788  1  0.474099  0.000629  0.035585  0.079906  0.000432  3.978979  0.0
C  C93  1  0.66571857  0.68944260  0.87142710  1  0.485304  0.000634  0.035255  0.081237  0.000437  3.976428  0.0
C  C94  1  0.16584058  0.18216115  0.87112327  1  0.474147  0.000629  0.035535  0.079817  0.000432  3.979038  0.0
C  C95  1  0.33428040  0.31055600  0.12857093  1  0.485158  0.000634  0.035243  0.081223  0.000437  3.97635  0.0
C  C96  1  0.54163522  0.88633805  0.15236879  1  0.440862  0.000424  0.042821  0.038393  0.000307  3.902418  0.0
C  C97  1  0.95807775  0.73476003  0.84789341  1  0.455382  0.000427  0.043238  0.039285  0.000309  3.901769  0.0
C  C98  1  0.45836560  0.11365953  0.84763136  1  0.440872  0.000424  0.04282  0.038437  0.000307  3.90249  0.0
C  C99  1  0.04191971  0.26523893  0.15210419  1  0.455324  0.000427  0.043219  0.039261  0.000309  3.901735  0.0
N  N100  1  0.39529405  0.98925574  0.36895559  1  -1.127264  0.083542  -0.372965  -0.266415  0.057102  3.490465  0.073
N  N101  1  0.10437656  0.62068024  0.63119209  1  -1.132213  0.083637  -0.372728  -0.266105  0.057214  3.488155  0.073
N  N102  1  0.60470646  0.01074445  0.63104482  1  -1.127349  0.083542  -0.372942  -0.266344  0.057101  3.49031  0.073
N  N103  1  0.89561949  0.37932056  0.36880735  1  -1.132224  0.083638  -0.37275  -0.266136  0.057214  3.488285  0.073
N  N104  1  0.69246518  0.86759294  0.10561312  1  -1.236892  0.000137  -0.331469  -0.232371  0.0  3.543217  0.0
N  N105  1  0.80729403  0.76264683  0.89470086  1  -1.246119  0.000141  -0.332679  -0.233594  2e-06  3.544447  0.0
N  N106  1  0.30753825  0.13240571  0.89438653  1  -1.236928  0.000138  -0.331429  -0.232317  0.0  3.543239  0.0
N  N107  1  0.19270484  0.23735287  0.10529747  1  -1.246147  0.000141  -0.332659  -0.233536  2e-06  3.54444  0.0
Cl  Cl108  1  0.90331290  0.00117719  0.88953683  1  -0.651846  0.002548  -0.297373  -0.496834  0.001811  1.303651  0.002
Cl  Cl109  1  0.59622406  0.11156585  0.11074190  1  -0.651138  0.002561  -0.296976  -0.496191  0.001821  1.305287  0.002
Cl  Cl110  1  0.09668629  0.99882118  0.11046254  1  -0.651907  0.002548  -0.297385  -0.496852  0.001811  1.303609  0.002
Cl  Cl111  1  0.40377209  0.88843451  0.88925788  1  -0.651132  0.002561  -0.296963  -0.496165  0.001821  1.305327  0.002
O  O112  1  0.49110752  0.15175714  0.56419334  1  -1.112549  0.115317  -0.331773  -0.505493  0.075086  2.465789  0.105
O  O113  1  0.00907890  0.58744161  0.43591512  1  -1.119776  0.115145  -0.331385  -0.505495  0.07487  2.46789  0.105
O  O114  1  0.50890005  0.84824287  0.43580688  1  -1.112524  0.115313  -0.33175  -0.505424  0.075083  2.465692  0.105
O  O115  1  0.99091988  0.41256046  0.56408481  1  -1.119833  0.11514  -0.331352  -0.505504  0.074867  2.467874  0.105
