# generated using pymatgen
data_Cu2P2H45C57I2N3
_symmetry_space_group_name_H-M   'P 1'
_cell_length_a   9.34647294
_cell_length_b   13.78290390
_cell_length_c   24.47466979
_cell_angle_alpha   77.92369485
_cell_angle_beta   82.72776610
_cell_angle_gamma   80.87028255
_symmetry_Int_Tables_number   1
_chemical_formula_structural   Cu2P2H45C57I2N3
_chemical_formula_sum   'Cu4 P4 H90 C114 I4 N6'
_cell_volume   3029.75998512
_cell_formula_units_Z   2
loop_
 _symmetry_equiv_pos_site_id
 _symmetry_equiv_pos_as_xyz
  1  'x, y, z'
loop_
 _atom_site_type_symbol
 _atom_site_label
 _atom_site_symmetry_multiplicity
 _atom_site_fract_x
 _atom_site_fract_y
 _atom_site_fract_z
 _atom_site_occupancy
 _atom_site_pbe_bader_charge
 _atom_site_pbe_bader_spin_density
 _atom_site_pbe_cm5_charge
 _atom_site_pbe_ddec_charge
 _atom_site_pbe_ddec_spin_density
 _atom_site_pbe_ddec_sum_bond_order
 _atom_site_pbe_magmom
Cu  Cu0  1  0.47704682  0.00616132  0.43467788  1  0.39051  0  0.329228  0.103657  0  2.765727  0
Cu  Cu1  1  0.52295162  0.99384037  0.56532239  1  0.390537  0  0.32927  0.103697  0  2.765734  0
Cu  Cu2  1  0.11277443  0.91945362  0.00813171  1  0.384182  0  0.32968  0.074153  0  2.828664  0
Cu  Cu3  1  0.88722379  0.08054358  0.99186909  1  0.384065  0  0.329674  0.07413  0  2.828644  0
P  P4  1  0.60839237  0.06961474  0.35825244  1  1.42065  0  -0.043464  0.214496  0  4.250044  0
P  P5  1  0.39161024  0.93038768  0.64174878  1  1.420506  0  -0.043405  0.214605  0  4.249979  0
P  P6  1  0.19108502  0.79179856  0.96564356  1  1.381776  0  -0.040375  0.223115  0  4.234715  0
P  P7  1  0.80891414  0.20819939  0.03435629  1  1.38173  0  -0.040408  0.22307  0  4.234618  0
H  H8  1  0.38823283  0.89954684  0.35203320  1  0.087766  0  0.108032  0.078544  0  1.037436  0
H  H9  1  0.61176208  0.10045636  0.64796787  1  0.087683  0  0.108002  0.078492  0  1.037425  0
H  H10  1  0.96047839  0.81979686  0.41554523  1  0.078637  0  0.10167  0.103365  0  1.013546  0
H  H11  1  0.03951680  0.18020484  0.58445641  1  0.078693  0  0.101679  0.103353  0  1.013592  0
H  H12  1  0.97707961  0.89358849  0.49825825  1  0.082661  0  0.09918  0.104586  0  1.047165  0
H  H13  1  0.02291667  0.10641321  0.50174293  1  0.082589  0  0.099169  0.1046  0  1.047049  0
H  H14  1  0.19962011  0.97286458  0.50278065  1  0.110124  0  0.101923  0.078589  0  1.045912  0
H  H15  1  0.80038049  0.02713710  0.49722034  1  0.110186  0  0.101966  0.078611  0  1.045934  0
H  H16  1  0.09129656  0.84427748  0.12858582  1  0.096706  0  0.098075  0.073348  0  1.055618  0
H  H17  1  0.90870159  0.15572571  0.87141510  1  0.096358  0  0.098118  0.073378  0  1.055654  0
H  H18  1  0.45631111  0.92245898  0.19481913  1  0.085894  0  0.103143  0.104377  0  1.021859  0
H  H19  1  0.54368295  0.07754872  0.80518106  1  0.086071  0  0.103107  0.104382  0  1.021932  0
H  H20  1  0.52755184  0.01293187  0.09754309  1  0.112631  0  0.098424  0.109148  0  1.034823  0
H  H21  1  0.47244402  0.98707209  0.90245664  1  0.112732  0  0.098443  0.109164  0  1.034778  0
H  H22  1  0.37513718  0.01291575  0.02052976  1  0.136731  0  0.101986  0.076741  0  1.045271  0
H  H23  1  0.62486184  0.98708296  0.97947001  1  0.136692  0  0.102014  0.076754  0  1.045283  0
H  H24  1  0.13533043  0.55392762  0.21015767  1  0.067134  0  0.110289  0.074253  0  1.014326  0
H  H25  1  0.86467972  0.44607477  0.78984360  1  0.067341  0  0.110286  0.074285  0  1.01429  0
H  H26  1  0.89322737  0.60499852  0.36629371  1  0.064715  0  0.108482  0.106345  0  0.995674  0
H  H27  1  0.10677423  0.39499793  0.63370661  1  0.064658  0  0.108467  0.106286  0  0.9958  0
H  H28  1  0.77940363  0.45168693  0.36874095  1  0.055435  0  0.110232  0.114891  0  0.98958  0
H  H29  1  0.22060396  0.54830652  0.63125739  1  0.055109  0  0.110299  0.115009  0  0.989521  0
H  H30  1  0.84789656  0.35841324  0.28994416  1  0.083109  0  0.109567  0.07747  0  1.013824  0
H  H31  1  0.15211658  0.64157944  0.71005319  1  0.083172  0  0.109581  0.077452  0  1.013787  0
H  H32  1  0.27121769  0.92783874  0.26967805  1  0.043441  0  0.104184  0.106864  0  1.013217  0
H  H33  1  0.72877003  0.07216822  0.73032334  1  0.043508  0  0.104188  0.106884  0  1.013088  0
H  H34  1  0.13918662  0.70756519  0.19279307  1  0.047517  0  0.10404  0.103726  0  1.028211  0
H  H35  1  0.86081463  0.29243874  0.80720722  1  0.047359  0  0.104069  0.103768  0  1.028152  0
H  H36  1  0.06775409  0.68420063  0.37221922  1  0.06933  0  0.102152  0.102127  0  1.018551  0
H  H37  1  0.93225680  0.31579804  0.62778000  1  0.069295  0  0.102154  0.102138  0  1.018495  0
H  H38  1  0.65550463  0.21219068  0.42079458  1  0.069047  0  0.093005  0.099958  0  1.028113  0
H  H39  1  0.34449747  0.78780875  0.57920659  1  0.069032  0  0.092973  0.099953  0  1.028139  0
H  H40  1  0.87438062  0.28178230  0.43545472  1  0.063816  0  0.101212  0.097483  0  0.992127  0
H  H41  1  0.12562106  0.71821938  0.56454581  1  0.063881  0  0.10125  0.097527  0  0.992043  0
H  H42  1  0.11871725  0.21912873  0.39362258  1  0.098864  0  0.096101  0.097631  0  1.024886  0
H  H43  1  0.88128386  0.78087595  0.60637722  1  0.098804  0  0.096138  0.097655  0  1.024876  0
H  H44  1  0.14323972  0.08741186  0.33520946  1  0.050286  0  0.094892  0.088398  0  1.030511  0
H  H45  1  0.85676275  0.91259132  0.66479085  1  0.050295  0  0.094857  0.088336  0  1.030592  0
H  H46  1  0.92531151  0.01973755  0.31928192  1  0.077709  0  0.098116  0.100146  0  1.022675  0
H  H47  1  0.07469246  0.98026337  0.68071941  1  0.077553  0  0.09812  0.100216  0  1.022594  0
H  H48  1  0.72921657  0.23122358  0.27074766  1  0.073871  0  0.096046  0.089717  0  1.045688  0
H  H49  1  0.27078877  0.76877584  0.72925254  1  0.073941  0  0.096023  0.089688  0  1.045781  0
H  H50  1  0.60883709  0.38011772  0.20970891  1  0.066109  0  0.101222  0.099103  0  0.998391  0
H  H51  1  0.39116437  0.61987947  0.79029133  1  0.066069  0  0.101237  0.099093  0  0.998395  0
H  H52  1  0.33743387  0.41784886  0.21725647  1  0.076524  0  0.101013  0.095434  0  1.011156  0
H  H53  1  0.66257160  0.58214462  0.78273829  1  0.076791  0  0.101007  0.09541  0  1.011162  0
H  H54  1  0.18869135  0.30754499  0.28751787  1  0.045954  0  0.095363  0.089818  0  1.050006  0
H  H55  1  0.81131415  0.69245369  0.71248160  1  0.045891  0  0.095379  0.089827  0  1.049995  0
H  H56  1  0.31247544  0.15778899  0.34976242  1  0.071347  0  0.091568  0.083052  0  1.078078  0
H  H57  1  0.68752904  0.84221492  0.65023853  1  0.072071  0  0.091576  0.083052  0  1.078085  0
H  H58  1  0.67808890  0.09472762  0.23258677  1  0.082538  0  0.096239  0.096155  0  1.045373  0
H  H59  1  0.32191615  0.90527330  0.76741410  1  0.082555  0  0.096251  0.096163  0  1.045351  0
H  H60  1  0.75281167  0.97079371  0.17080272  1  0.092004  0  0.085606  0.089685  0  1.058226  0
H  H61  1  0.24719016  0.02920723  0.82919666  1  0.092021  0  0.085612  0.089692  0  1.058216  0
H  H62  1  0.78076483  0.78913935  0.21102682  1  0.062265  0  0.097329  0.09481  0  1.004628  0
H  H63  1  0.21923268  0.21086161  0.78897235  1  0.062213  0  0.097318  0.094765  0  1.004677  0
H  H64  1  0.73353310  0.73061107  0.31451299  1  0.078398  0  0.094378  0.090096  0  1.028321  0
H  H65  1  0.26645944  0.26938766  0.68548668  1  0.078277  0  0.094338  0.090007  0  1.028416  0
H  H66  1  0.66153337  0.85468463  0.37722671  1  0.072846  0  0.083083  0.08781  0  1.06607  0
H  H67  1  0.33846106  0.14531560  0.62277228  1  0.072823  0  0.083099  0.087838  0  1.066031  0
H  H68  1  0.43626405  0.78496241  0.02632746  1  0.040945  0  0.09792  0.099974  0  1.012125  0
H  H69  1  0.56373578  0.21503780  0.97367006  1  0.040868  0  0.097901  0.099987  0  1.012035  0
H  H70  1  0.70256954  0.77747025  0.00045364  1  0.062199  0  0.088704  0.093226  0  1.036225  0
H  H71  1  0.29743016  0.22253072  0.99954298  1  0.062214  0  0.088676  0.093249  0  1.036271  0
H  H72  1  0.80420579  0.77559791  0.90174234  1  0.105506  0  0.095125  0.092221  0  1.053659  0
H  H73  1  0.19579297  0.22440232  0.09825400  1  0.105577  0  0.095071  0.092145  0  1.053755  0
H  H74  1  0.63818863  0.77903757  0.82889477  1  0.092169  0  0.094277  0.092419  0  1.025615  0
H  H75  1  0.36180501  0.22096118  0.17110280  1  0.092242  0  0.094296  0.09253  0  1.025472  0
H  H76  1  0.37241396  0.78475822  0.85478768  1  0.058888  0  0.093911  0.093773  0  1.046495  0
H  H77  1  0.62758319  0.21523900  0.14521194  1  0.058992  0  0.093936  0.093834  0  1.046437  0
H  H78  1  0.04095297  0.94811861  0.88719127  1  0.088681  0  0.084139  0.081207  0  1.085625  0
H  H79  1  0.95904001  0.05187787  0.11280863  1  0.088936  0  0.084123  0.081192  0  1.08555  0
H  H80  1  0.93868172  0.95222572  0.79754799  1  0.070516  0  0.09558  0.09276  0  1.020074  0
H  H81  1  0.06131168  0.04776852  0.20245256  1  0.070819  0  0.095535  0.09267  0  1.020092  0
H  H82  1  0.94410445  0.79295557  0.76317366  1  0.059154  0  0.095327  0.088367  0  1.033774  0
H  H83  1  0.05589650  0.20703864  0.23682654  1  0.058755  0  0.095317  0.08835  0  1.033774  0
H  H84  1  0.05042210  0.63221076  0.81789181  1  0.127959  0  0.093778  0.08375  0  1.085959  0
H  H85  1  0.94958535  0.36778344  0.18210686  1  0.128065  0  0.093791  0.083806  0  1.085986  0
H  H86  1  0.15891900  0.62840071  0.90679172  1  0.06247  0  0.099337  0.099227  0  1.019211  0
H  H87  1  0.84108476  0.37159573  0.09320850  1  0.062554  0  0.099297  0.099172  0  1.01915  0
H  H88  1  0.38744456  0.59617880  0.97396225  1  0.065852  0  0.095341  0.092625  0  1.039805  0
H  H89  1  0.61255273  0.40381767  0.02603745  1  0.066178  0  0.095337  0.092629  0  1.039825  0
H  H90  1  0.36674925  0.42917100  0.03465632  1  0.060515  0  0.094355  0.092423  0  1.039864  0
H  H91  1  0.63324575  0.57082624  0.96534217  1  0.060514  0  0.094318  0.092378  0  1.039917  0
H  H92  1  0.15248297  0.40459040  0.10433782  1  0.081596  0  0.095072  0.089183  0  1.052048  0
H  H93  1  0.84751189  0.59540758  0.89566101  1  0.081577  0  0.095065  0.089154  0  1.052054  0
H  H94  1  0.95392840  0.54657593  0.11197712  1  0.049557  0  0.098792  0.096439  0  0.997587  0
H  H95  1  0.04606616  0.45342354  0.88802277  1  0.049582  0  0.098812  0.096447  0  0.997635  0
H  H96  1  0.97345413  0.71357899  0.05107022  1  0.096456  0  0.077919  0.08404  0  1.086816  0
H  H97  1  0.02654691  0.28642046  0.94892896  1  0.096048  0  0.077932  0.08407  0  1.086797  0
C  C98  1  0.29386915  0.89780126  0.38327116  1  0.464988  0  0.038613  0.024142  0  3.902257  0
C  C99  1  0.70612483  0.10220120  0.61672923  1  0.464773  0  0.038676  0.024262  0  3.902282  0
C  C100  1  0.17463909  0.85239868  0.37685008  1  0.017458  0  -0.005716  0.023953  0  4.002279  0
C  C101  1  0.82535746  0.14760152  0.62315168  1  0.017785  0  -0.005783  0.023918  0  4.002281  0
C  C102  1  0.05828950  0.85110112  0.41916893  1  -0.045852  0  -0.070661  -0.083984  0  3.940231  0
C  C103  1  0.94170662  0.14890132  0.58083341  1  -0.046087  0  -0.070595  -0.083893  0  3.940142  0
C  C104  1  0.06625388  0.89385620  0.46505258  1  -0.012662  0  -0.084178  -0.112261  0  3.985731  0
C  C105  1  0.93374210  0.10614699  0.53494886  1  -0.012884  0  -0.084179  -0.112346  0  3.985552  0
C  C106  1  0.18865912  0.93778115  0.46780427  1  0.472693  0  0.039136  0.085757  0  3.901667  0
C  C107  1  0.81133918  0.06222129  0.53219591  1  0.473119  0  0.039109  0.08579  0  3.90154  0
C  C108  1  0.19126036  0.87820559  0.12365658  1  0.482916  0  0.036607  0.032962  0  3.898879  0
C  C109  1  0.80873657  0.12179835  0.87634391  1  0.483201  0  0.036517  0.032955  0  3.898835  0
C  C110  1  0.26824135  0.87431431  0.16965197  1  -0.004471  0  -0.007213  0.022191  0  4.009008  0
C  C111  1  0.73175054  0.12569338  0.83034914  1  -0.004687  0  -0.007104  0.022245  0  4.008983  0
C  C112  1  0.39186982  0.92381163  0.16042992  1  -0.028889  0  -0.071683  -0.08745  0  3.926531  0
C  C113  1  0.60812033  0.07619383  0.83957153  1  -0.028431  0  -0.071639  -0.087506  0  3.926829  0
C  C114  1  0.43236051  0.97366172  0.10648686  1  -0.062238  0  -0.08502  -0.10946  0  3.990448  0
C  C115  1  0.56763383  0.02634448  0.89351308  1  -0.062474  0  -0.085124  -0.109513  0  3.990544  0
C  C116  1  0.34905628  0.97338793  0.06323398  1  0.437724  0  0.038598  0.079585  0  3.915235  0
C  C117  1  0.65094273  0.02661077  0.93676702  1  0.437682  0  0.038609  0.079607  0  3.915032  0
C  C118  1  0.05520360  0.53492052  0.24590569  1  0.481335  0  0.045804  0.03849  0  3.959538  0
C  C119  1  0.94480390  0.46507890  0.75409483  1  0.481069  0  0.0458  0.03842  0  3.959649  0
C  C120  1  0.02449262  0.59385812  0.28755936  1  -0.013463  0  -0.003049  0.026027  0  3.986288  0
C  C121  1  0.97551286  0.40614055  0.71244174  1  -0.013239  0  -0.003017  0.025924  0  3.986174  0
C  C122  1  0.92317204  0.56228581  0.33279025  1  -0.053316  0  -0.072638  -0.09455  0  3.964894  0
C  C123  1  0.07683818  0.43771059  0.66721171  1  -0.0536  0  -0.072576  -0.094361  0  3.964872  0
C  C124  1  0.85874315  0.47732517  0.33426262  1  0.017009  0  -0.087246  -0.130042  0  4.014582  0
C  C125  1  0.14126981  0.52266824  0.66573833  1  0.017437  0  -0.087379  -0.130307  0  4.014653  0
C  C126  1  0.89644483  0.42537454  0.29020600  1  0.497093  0  0.040872  0.079409  0  3.992649  0
C  C127  1  0.10357151  0.57461811  0.70979488  1  0.497013  0  0.040904  0.079503  0  3.992413  0
C  C128  1  0.16984657  0.81029937  0.32657037  1  0.019684  0  -0.006084  0.084818  0  4.03576  0
C  C129  1  0.83015158  0.18970383  0.67343015  1  0.019716  0  -0.00607  0.08483  0  4.035804  0
C  C130  1  0.22533735  0.85837039  0.27370008  1  -0.031297  0  -0.085952  -0.179749  0  3.926875  0
C  C131  1  0.77465252  0.14163656  0.72630121  1  -0.030898  0  -0.085978  -0.179819  0  3.926786  0
C  C132  1  0.21548566  0.82114594  0.22545461  1  -0.017878  0  -0.005877  0.086482  0  4.039145  0
C  C133  1  0.78450731  0.17886175  0.77454645  1  -0.028374  0  -0.005919  0.086405  0  4.039307  0
C  C134  1  0.14903300  0.73498940  0.23061902  1  -0.027191  0  -0.084785  -0.178206  0  3.925077  0
C  C135  1  0.85096488  0.26501530  0.76938011  1  -0.017285  0  -0.084884  -0.178334  0  3.925086  0
C  C136  1  0.09424542  0.68461363  0.28309650  1  -0.040705  0  -0.006725  0.079342  0  4.040998  0
C  C137  1  0.90575641  0.31538731  0.71690247  1  -0.040688  0  -0.006768  0.079412  0  4.040905  0
C  C138  1  0.10609053  0.72321660  0.33075722  1  -0.023121  0  -0.086852  -0.17701  0  3.927066  0
C  C139  1  0.89391590  0.27678282  0.66924253  1  -0.023148  0  -0.086783  -0.17694  0  3.927056  0
C  C140  1  0.77645546  0.11204315  0.36861943  1  -0.550586  0  -0.026074  -0.037257  0  3.974794  0
C  C141  1  0.22354973  0.88795702  0.63138233  1  -0.550438  0  -0.026077  -0.037173  0  3.974829  0
C  C142  1  0.76268056  0.18631856  0.40131215  1  -0.021654  0  -0.087858  -0.1017  0  3.971297  0
C  C143  1  0.23732326  0.81368311  0.59868950  1  -0.021151  0  -0.087821  -0.101762  0  3.971291  0
C  C144  1  0.88529351  0.22505043  0.40955108  1  -0.068499  0  -0.091998  -0.081978  0  4.032199  0
C  C145  1  0.11470815  0.77495124  0.59045027  1  -0.069043  0  -0.092044  -0.082024  0  4.032019  0
C  C146  1  0.02293306  0.18986115  0.38586290  1  -0.116066  0  -0.094643  -0.091602  0  4.003836  0
C  C147  1  0.97706955  0.81014127  0.61413791  1  -0.11611  0  -0.094652  -0.091614  0  4.003959  0
C  C148  1  0.03656034  0.11590145  0.35366201  1  -0.030752  0  -0.096372  -0.08496  0  4.024023  0
C  C149  1  0.96344335  0.88410097  0.64633834  1  -0.030763  0  -0.096328  -0.084816  0  4.02414  0
C  C150  1  0.91397420  0.07701245  0.34486490  1  -0.036324  0  -0.090866  -0.101409  0  3.985708  0
C  C151  1  0.08602948  0.92298997  0.65513585  1  -0.036025  0  -0.090937  -0.101654  0  3.985731  0
C  C152  1  0.52708717  0.18341098  0.31331950  1  -0.544709  0  -0.025534  -0.030757  0  3.95363  0
C  C153  1  0.47291742  0.81659217  0.68668481  1  -0.544675  0  -0.025589  -0.030711  0  3.953471  0
C  C154  1  0.61067153  0.24750739  0.27446223  1  -0.083996  0  -0.088126  -0.099882  0  3.981598  0
C  C155  1  0.38933322  0.75249502  0.72554012  1  -0.083928  0  -0.088089  -0.099892  0  3.98166  0
C  C156  1  0.54269357  0.33162551  0.24016575  1  -0.012627  0  -0.092134  -0.085271  0  4.011409  0
C  C157  1  0.45730760  0.66837318  0.75983473  1  -0.012688  0  -0.092169  -0.085261  0  4.011292  0
C  C158  1  0.39074159  0.35277957  0.24448905  1  -0.088739  0  -0.087647  -0.0739  0  3.99794  0
C  C159  1  0.60926346  0.64722135  0.75551182  1  -0.088961  0  -0.087579  -0.073783  0  3.997846  0
C  C160  1  0.30701741  0.29030867  0.28367553  1  -0.015515  0  -0.094522  -0.082571  0  4.001899  0
C  C161  1  0.69298627  0.70969375  0.71632523  1  -0.015148  0  -0.094645  -0.08271  0  4.002121  0
C  C162  1  0.37536627  0.20627869  0.31800042  1  -0.009869  0  -0.092623  -0.107184  0  3.995768  0
C  C163  1  0.62463913  0.79372596  0.68200204  1  -0.011027  0  -0.092566  -0.107171  0  3.99577  0
C  C164  1  0.66588918  0.98321401  0.30932981  1  -0.551425  0  -0.030224  -0.046308  0  3.965313  0
C  C165  1  0.33411035  0.01678769  0.69066919  1  -0.551431  0  -0.030239  -0.04647  0  3.965389  0
C  C166  1  0.69104473  0.01514603  0.25104211  1  -0.05204  0  -0.089195  -0.098438  0  3.969511  0
C  C167  1  0.30895709  0.98485491  0.74895809  1  -0.052021  0  -0.08922  -0.09843  0  3.969423  0
C  C168  1  0.73262665  0.94547629  0.21606075  1  -0.114579  0  -0.094702  -0.076586  0  3.995492  0
C  C169  1  0.26737396  0.05452540  0.78393901  1  -0.114617  0  -0.094669  -0.07649  0  3.995483  0
C  C170  1  0.74869871  0.84305207  0.23874316  1  0.007405  0  -0.091201  -0.078949  0  4.001142  0
C  C171  1  0.25129476  0.15694739  0.76125760  1  0.00739  0  -0.091213  -0.078979  0  4.001143  0
C  C172  1  0.72282350  0.81049833  0.29668893  1  -0.07048  0  -0.097628  -0.083522  0  4.014638  0
C  C173  1  0.27717401  0.18950262  0.70331188  1  -0.070166  0  -0.097638  -0.083445  0  4.014504  0
C  C174  1  0.68209736  0.87993699  0.33187058  1  -0.044094  0  -0.093848  -0.105126  0  3.989572  0
C  C175  1  0.31789784  0.12006472  0.66812943  1  -0.044277  0  -0.093799  -0.105062  0  3.989404  0
C  C176  1  0.38578299  0.78583528  0.94226002  1  -0.53939  0  -0.028788  -0.047366  0  3.98372  0
C  C177  1  0.61421538  0.21416118  0.05774003  1  -0.53935  0  -0.028763  -0.047235  0  3.983597  0
C  C178  1  0.48054670  0.78342150  0.98302184  1  -0.07689  0  -0.089586  -0.105101  0  3.981591  0
C  C179  1  0.51945556  0.21657720  0.01697696  1  -0.076687  0  -0.089535  -0.105086  0  3.98144  0
C  C180  1  0.63025082  0.77848389  0.96858157  1  -0.031441  0  -0.092438  -0.078201  0  4.001014  0
C  C181  1  0.36974874  0.22151783  0.03141415  1  -0.031713  0  -0.092438  -0.078323  0  4.001111  0
C  C182  1  0.68744211  0.77759704  0.91301840  1  -0.051595  0  -0.090769  -0.076647  0  3.989264  0
C  C183  1  0.31255694  0.22240168  0.08697892  1  -0.051173  0  -0.090735  -0.076467  0  3.989568  0
C  C184  1  0.59438132  0.78038350  0.87225960  1  -0.028949  0  -0.093847  -0.080959  0  4.003848  0
C  C185  1  0.40560910  0.21961526  0.12773730  1  -0.029228  0  -0.093837  -0.081171  0  4.004066  0
C  C186  1  0.44413614  0.78409416  0.88674432  1  -0.058356  0  -0.095101  -0.111871  0  3.985632  0
C  C187  1  0.55585856  0.21590455  0.11325606  1  -0.058635  0  -0.095152  -0.111982  0  3.985535  0
C  C188  1  0.10946938  0.78857608  0.90204754  1  -0.54185  0  -0.025197  -0.038692  0  3.957859  0
C  C189  1  0.89053087  0.21142188  0.09795144  1  -0.541579  0  -0.025158  -0.038654  0  3.95779  0
C  C190  1  0.04538251  0.87926784  0.87129446  1  -0.01048  0  -0.086644  -0.08962  0  3.960142  0
C  C191  1  0.95461154  0.12072864  0.12870539  1  -0.011064  0  -0.086601  -0.089643  0  3.959975  0
C  C192  1  0.98746702  0.88115184  0.82115774  1  -0.090812  0  -0.092621  -0.08018  0  3.998944  0
C  C193  1  0.01252855  0.11884239  0.17884230  1  -0.091315  0  -0.092605  -0.080073  0  3.998845  0
C  C194  1  0.99071772  0.79219778  0.80194477  1  -0.034422  0  -0.091426  -0.078933  0  3.993039  0
C  C195  1  0.00928229  0.20779568  0.19805638  1  -0.034001  0  -0.091434  -0.078881  0  3.99311  0
C  C196  1  0.05231043  0.70132042  0.83280322  1  -0.128481  0  -0.096507  -0.092582  0  4.010979  0
C  C197  1  0.94769376  0.29867378  0.16719683  1  -0.128472  0  -0.096536  -0.092804  0  4.011361  0
C  C198  1  0.11202943  0.69950709  0.88253126  1  -0.029011  0  -0.087039  -0.098867  0  3.975279  0
C  C199  1  0.88797433  0.30048935  0.11746937  1  -0.028977  0  -0.086985  -0.098663  0  3.975163  0
C  C200  1  0.18172853  0.66622309  0.00844084  1  -0.495749  0  -0.029022  -0.041131  0  3.957434  0
C  C201  1  0.81827235  0.33377710  0.99155990  1  -0.495759  0  -0.028985  -0.041106  0  3.957335  0
C  C202  1  0.29228906  0.58552682  0.00417146  1  -0.076347  0  -0.090884  -0.101333  0  3.988906  0
C  C203  1  0.70770689  0.41447117  0.99582649  1  -0.076668  0  -0.090885  -0.101363  0  3.98886  0
C  C204  1  0.28131598  0.49187273  0.03850210  1  -0.021682  0  -0.095914  -0.083764  0  4.006359  0
C  C205  1  0.71867887  0.50812524  0.96149713  1  -0.021694  0  -0.095835  -0.083686  0  4.006259  0
C  C206  1  0.16022345  0.47771741  0.07754046  1  -0.03414  0  -0.092932  -0.078919  0  4.00163  0
C  C207  1  0.83977185  0.52227834  0.92245738  1  -0.033867  0  -0.092947  -0.078881  0  4.001433  0
C  C208  1  0.04904801  0.55733497  0.08165511  1  -0.059785  0  -0.094986  -0.08129  0  4.005924  0
C  C209  1  0.95095345  0.44266223  0.91834512  1  -0.06015  0  -0.094983  -0.081266  0  4.005804  0
C  C210  1  0.05955221  0.65107056  0.04736604  1  -0.09387  0  -0.094255  -0.097311  0  3.975576  0
C  C211  1  0.94044602  0.34892666  0.95263312  1  -0.093329  0  -0.094325  -0.097421  0  3.975566  0
I  I212  1  0.63206192  0.85628510  0.50226661  1  -0.536222  0  -0.278975  -0.429693  0  1.638608  0
I  I213  1  0.36793653  0.14371660  0.49773284  1  -0.536235  0  -0.278964  -0.42969  0  1.638596  0
I  I214  1  0.84457720  0.90869941  0.06088740  1  -0.495479  0  -0.196326  -0.370113  0  1.848879  0
I  I215  1  0.15541965  0.09129930  0.93911329  1  -0.495451  0  -0.196317  -0.370098  0  1.848843  0
N  N216  1  0.30112347  0.94036446  0.42745820  1  -1.241323  0  -0.354193  -0.164266  0  3.645857  0
N  N217  1  0.69887432  0.05963499  0.57254277  1  -1.241297  0  -0.354234  -0.164357  0  3.64598  0
N  N218  1  0.22974208  0.92661843  0.07154463  1  -1.23551  0  -0.357363  -0.16289  0  3.654707  0
N  N219  1  0.77025635  0.07338326  0.92845605  1  -1.235361  0  -0.357346  -0.162873  0  3.654585  0
N  N220  1  0.99330276  0.45350516  0.24665642  1  -1.216414  0  -0.317161  -0.254043  0  3.381947  0
N  N221  1  0.00670935  0.54649276  0.75334282  1  -1.216397  0  -0.317182  -0.253974  0  3.381688  0
