# generated using pymatgen
data_Zr6H23C52S10Br2N5O32
_symmetry_space_group_name_H-M   'P 1'
_cell_length_a   16.43409356
_cell_length_b   16.43534443
_cell_length_c   16.51404689
_cell_angle_alpha   61.93392004
_cell_angle_beta   59.81102486
_cell_angle_gamma   60.29856061
_symmetry_Int_Tables_number   1
_chemical_formula_structural   Zr6H23C52S10Br2N5O32
_chemical_formula_sum   'Zr6 H23 C52 S10 Br2 N5 O32'
_cell_volume   3200.11823030
_cell_formula_units_Z   1
loop_
 _symmetry_equiv_pos_site_id
 _symmetry_equiv_pos_as_xyz
  1  'x, y, z'
loop_
 _atom_site_type_symbol
 _atom_site_label
 _atom_site_symmetry_multiplicity
 _atom_site_fract_x
 _atom_site_fract_y
 _atom_site_fract_z
 _atom_site_occupancy
 _atom_site_pbe_bader_charge
 _atom_site_pbe_bader_spin_density
 _atom_site_pbe_cm5_charge
 _atom_site_pbe_ddec_charge
 _atom_site_pbe_ddec_spin_density
 _atom_site_pbe_ddec_sum_bond_order
 _atom_site_pbe_magmom
Zr  Zr0  1  0.88772791  0.90221402  0.59761554  1  2.637145  0  1.630071  2.372926  0  2.78533  0
Zr  Zr1  1  0.11215258  0.10108061  0.39913138  1  2.630161  0  1.632235  2.367578  0  2.80283  0
Zr  Zr2  1  0.10199947  0.89349400  0.60684712  1  2.6307  0  1.61745  2.364363  0  2.762544  0
Zr  Zr3  1  0.89743621  0.11061849  0.38967493  1  2.635405  0  1.620754  2.375237  0  2.739262  0
Zr  Zr4  1  0.10964313  0.89254455  0.38914724  1  2.635132  0  1.615573  2.372007  0  2.736914  0
Zr  Zr5  1  0.89075440  0.11089643  0.60775312  1  2.635524  0  1.616656  2.372782  0  2.738037  0
H  H6  1  0.07884788  0.75204402  0.57619652  1  0.607069  0  0.331608  0.425317  0  0.854608  0
H  H7  1  0.09429086  0.07956764  0.24882706  1  0.601891  0  0.33164  0.424601  0  0.855175  0
H  H8  1  0.08314521  0.08080536  0.59043683  1  0.610869  0  0.33238  0.426927  0  0.850805  0
H  H9  1  0.74478004  0.09382720  0.57777316  1  0.595639  0  0.331159  0.425063  0  0.851889  0
H  H10  1  0.12552404  0.61245085  0.36050850  1  0.114619  0  0.120024  0.144608  0  0.973126  0
H  H11  1  0.61149365  0.12699578  0.89875086  1  0.106158  0  0.119907  0.144319  0  0.972583  0
H  H12  1  0.86838680  0.12475127  0.11873112  1  0.114537  0  0.119426  0.144641  0  0.973569  0
H  H13  1  0.62643165  0.39609290  0.36165365  1  0.118294  0  0.118968  0.143997  0  0.974169  0
H  H14  1  0.10117164  0.63652364  0.87205794  1  0.093109  0  0.097838  0.108477  0  1.045415  0
H  H15  1  0.84218077  0.65532104  0.85123778  1  0.126826  0  0.111449  0.131699  0  0.999041  0
H  H16  1  0.89122331  0.37466666  0.13231350  1  0.124535  0  0.101115  0.114216  0  1.036328  0
H  H17  1  0.15167136  0.35451472  0.15156719  1  0.113228  0  0.112146  0.132734  0  0.996652  0
H  H18  1  0.62383000  0.87394251  0.61035942  1  0.122277  0  0.119558  0.144544  0  0.975294  0
H  H19  1  0.81493259  0.42812403  0.69651143  1  0.420777  0  0.313523  0.307565  0  0.936779  0
H  H20  1  0.84437137  0.33202151  0.65740721  1  0.498869  0  0.308324  0.318807  0  0.959947  0
H  H21  1  0.42983767  0.81153761  0.06355625  1  0.462421  0  0.315054  0.310195  0  0.937592  0
H  H22  1  0.33579494  0.83943904  0.17168399  1  0.500037  0  0.310575  0.323002  0  0.957846  0
H  H23  1  0.19424656  0.82061468  0.90912641  1  0.447402  0  0.309817  0.303501  0  0.941011  0
H  H24  1  0.14916850  0.84832699  0.82038429  1  0.498078  0  0.305905  0.315241  0  0.967351  0
H  H25  1  0.40671804  0.57286487  0.69715613  1  0.455773  0  0.308836  0.302163  0  0.947173  0
H  H26  1  0.31573403  0.67712603  0.65485660  1  0.489187  0  0.306215  0.317003  0  0.965633  0
H  H27  1  0.41486333  0.18735732  0.32359527  1  0.474843  0  0.313965  0.308237  0  0.935989  0
H  H28  1  0.32207422  0.14333642  0.35500325  1  0.505284  0  0.309678  0.320287  0  0.964981  0
C  C29  1  0.99446166  0.73807629  0.48501303  1  1.574719  0  0.224344  0.642841  0  4.157869  0
C  C30  1  0.28349930  0.99007769  0.23457475  1  1.479802  0  0.212698  0.647991  0  4.153201  0
C  C31  1  0.00043148  0.27262481  0.50313442  1  1.514883  0  0.213822  0.648229  0  4.155343  0
C  C32  1  0.72411664  0.00805238  0.76847381  1  1.576013  0  0.225502  0.644523  0  4.156095  0
C  C33  1  0.98132684  0.74042073  0.76610502  1  1.556686  0  0.236425  0.642636  0  4.094356  0
C  C34  1  0.73108776  0.00610284  0.48642911  1  1.572759  0  0.225634  0.644415  0  4.157489  0
C  C35  1  0.01253777  0.26935739  0.23678067  1  1.573618  0  0.236875  0.640605  0  4.096605  0
C  C36  1  0.27694763  0.98739976  0.50513196  1  1.505689  0  0.213494  0.65035  0  4.154905  0
C  C37  1  0.27419724  0.72874300  0.49445940  1  1.521452  0  0.21418  0.649744  0  4.146217  0
C  C38  1  0.98855939  0.99885385  0.77894344  1  1.509822  0  0.213902  0.650367  0  4.146452  0
C  C39  1  0.73422078  0.28143354  0.49433291  1  1.567746  0  0.225909  0.645371  0  4.148528  0
C  C40  1  0.00210027  0.99893804  0.22580037  1  1.578962  0  0.224881  0.643591  0  4.15257  0
C  C41  1  0.92787563  0.41984323  0.56371340  1  0.55087  0  0.104968  0.280096  0  4.130359  0
C  C42  1  0.06274319  0.59227240  0.42265671  1  0.041823  0  -0.088144  -0.133115  0  3.9657  0
C  C43  1  0.99769199  0.36380165  0.49822562  1  -0.131318  0  -0.047576  -0.261434  0  3.951613  0
C  C44  1  0.99459540  0.64804815  0.48656917  1  -0.149894  0  -0.023492  -0.117208  0  3.974667  0
C  C45  1  0.03900801  0.50912927  0.45016197  1  -0.196704  0  -0.02195  0.008468  0  4.104077  0
C  C46  1  0.95301189  0.50332244  0.53477447  1  -0.136587  0  -0.030372  -0.125564  0  4.043943  0
C  C47  1  0.42208366  0.92602293  0.09054909  1  0.50697  0  0.106544  0.286862  0  4.136392  0
C  C48  1  0.58969066  0.06568356  0.91846458  1  0.055674  0  -0.087421  -0.131101  0  3.961645  0
C  C49  1  0.37161050  0.99063124  0.14742354  1  -0.072408  0  -0.048499  -0.265833  0  3.951397  0
C  C50  1  0.63895205  0.00358077  0.86112953  1  -0.171945  0  -0.023349  -0.115811  0  3.973973  0
C  C51  1  0.51074183  0.03791513  0.00218584  1  -0.189297  0  -0.021848  0.00727  0  4.106008  0
C  C52  1  0.50190318  0.95470783  0.00698793  1  -0.139566  0  -0.031769  -0.130416  0  4.04792  0
C  C53  1  0.05847491  0.92996513  0.91424039  1  0.504234  0  0.103853  0.279361  0  4.123802  0
C  C54  1  0.92977767  0.06335982  0.09284974  1  0.103473  0  -0.08757  -0.132483  0  3.955074  0
C  C55  1  0.98816538  0.99746263  0.86745529  1  -0.124607  0  -0.048064  -0.262465  0  3.935195  0
C  C56  1  0.99879464  0.99742856  0.13910887  1  -0.226755  0  -0.022284  -0.112953  0  3.958839  0
C  C57  1  0.95079392  0.03942136  0.01101444  1  -0.169882  0  -0.022376  0.007887  0  4.098955  0
C  C58  1  0.03563174  0.95531679  0.99660539  1  -0.142068  0  -0.031133  -0.123796  0  4.041829  0
C  C59  1  0.41261170  0.59533427  0.56139811  1  0.534951  0  0.104506  0.281885  0  4.121654  0
C  C60  1  0.59907966  0.42027988  0.42459910  1  0.001025  0  -0.088508  -0.133119  0  3.957265  0
C  C61  1  0.36516957  0.64457048  0.49177344  1  -0.151631  0  -0.047485  -0.262347  0  3.934497  0
C  C62  1  0.64588576  0.37124751  0.49298226  1  -0.130647  0  -0.023115  -0.116205  0  3.961682  0
C  C63  1  0.51425703  0.50202375  0.44871885  1  -0.140399  0  -0.021976  0.008046  0  4.101008  0
C  C64  1  0.49813222  0.51364381  0.53531843  1  -0.158521  0  -0.030979  -0.125351  0  4.041172  0
C  C65  1  0.04214729  0.60735242  0.90044633  1  0.023061  0  -0.082146  -0.128448  0  3.934681  0
C  C66  1  0.89506004  0.61763790  0.88928683  1  -0.008085  0  -0.089575  -0.152205  0  3.976157  0
C  C67  1  0.88799486  0.53665764  0.96980231  1  -0.122218  0  -0.009396  0.075922  0  3.933105  0
C  C68  1  0.95690689  0.48651219  0.02035257  1  0.0315  0  -0.003051  0.046138  0  3.965837  0
C  C69  1  0.95059655  0.40356599  0.10345992  1  -0.115763  0  -0.080411  -0.12914  0  3.929445  0
C  C70  1  0.09835108  0.39266994  0.11395504  1  0.075896  0  -0.087867  -0.14981  0  3.970144  0
C  C71  1  0.10574362  0.47326558  0.03307749  1  -0.156713  0  -0.008596  0.077264  0  3.927609  0
C  C72  1  0.03631180  0.52398986  0.98308120  1  0.034857  0  -0.003279  0.045509  0  3.966492  0
C  C73  1  0.97317266  0.65318865  0.85452768  1  0.015398  0  -0.011101  -0.011636  0  3.967404  0
C  C74  1  0.01954494  0.35778052  0.14939924  1  0.08203  0  -0.010644  -0.010182  0  3.963242  0
C  C75  1  0.41535515  0.05642864  0.43223001  1  0.537812  0  0.106848  0.284204  0  4.128343  0
C  C76  1  0.59708278  0.93333574  0.55240182  1  0.041199  0  -0.087867  -0.132197  0  3.961636  0
C  C77  1  0.36726400  0.98679592  0.50033072  1  -0.113463  0  -0.048213  -0.26315  0  3.941419  0
C  C78  1  0.64384716  0.00220034  0.48645649  1  -0.179537  0  -0.02382  -0.116949  0  3.976279  0
C  C79  1  0.51376850  0.95227467  0.53338793  1  -0.175752  0  -0.022086  0.008953  0  4.105612  0
C  C80  1  0.49928869  0.03520344  0.45279770  1  -0.146372  0  -0.029937  -0.124456  0  4.047623  0
S  S81  1  0.09080956  0.41281064  0.40368130  1  0.225561  0  0.049616  0.087225  0  2.762462  0
S  S82  1  0.90106064  0.60037291  0.58006549  1  0.244019  0  0.07259  0.120875  0  2.77124  0
S  S83  1  0.42188825  0.08281233  0.10005703  1  0.252193  0  0.051806  0.09207  0  2.762509  0
S  S84  1  0.59060556  0.91062987  0.90871645  1  0.239001  0  0.071305  0.119536  0  2.772755  0
S  S85  1  0.89651207  0.08895078  0.92421269  1  0.247741  0  0.047607  0.084331  0  2.745022  0
S  S86  1  0.08903062  0.90538458  0.08402258  1  0.243164  0  0.066353  0.111164  0  2.762421  0
S  S87  1  0.42541823  0.59167886  0.39665936  1  0.230127  0  0.04922  0.087513  0  2.746213  0
S  S88  1  0.58759241  0.42465137  0.58654878  1  0.236376  0  0.070088  0.118667  0  2.762668  0
S  S89  1  0.42512062  0.89758563  0.58576877  1  0.235831  0  0.043809  0.079577  0  2.748496  0
S  S90  1  0.58794941  0.08963797  0.40027976  1  0.25732  0  0.07284  0.119247  0  2.758993  0
Br  Br91  1  0.21383587  0.51727394  0.98722188  1  -0.086882  0  0.00337  -0.096782  0  1.341797  0
Br  Br92  1  0.78182522  0.49086354  0.01382785  1  -0.077218  0  0.006928  -0.091877  0  1.330843  0
N  N93  1  0.84694396  0.39877683  0.64123687  1  -1.238109  0  -0.580081  -0.591352  0  3.335038  0
N  N94  1  0.39875566  0.84757080  0.11315457  1  -1.283287  0  -0.579269  -0.594643  0  3.35511  0
N  N95  1  0.13567789  0.85050768  0.88669718  1  -1.277295  0  -0.582013  -0.59105  0  3.340095  0
N  N96  1  0.38315335  0.62290424  0.64063465  1  -1.264832  0  -0.582176  -0.592656  0  3.343491  0
N  N97  1  0.38807967  0.13151166  0.35675402  1  -1.306153  0  -0.5785  -0.589547  0  3.349317  0
O  O98  1  0.92302381  0.77589275  0.55328057  1  -1.177124  0  -0.360171  -0.620233  0  2.292547  0
O  O99  1  0.24668532  0.05781458  0.27418621  1  -1.192616  0  -0.373547  -0.630784  0  2.290596  0
O  O100  1  0.07356039  0.23087726  0.43785766  1  -1.192951  0  -0.373878  -0.632826  0  2.29444  0
O  O101  1  0.75691708  0.94182857  0.72871305  1  -1.177016  0  -0.36087  -0.622243  0  2.291964  0
O  O102  1  0.05341247  0.76999942  0.73526525  1  -1.184232  0  -0.352994  -0.618254  0  2.270176  0
O  O103  1  0.76605525  0.07445007  0.42067206  1  -1.17886  0  -0.354151  -0.619442  0  2.256198  0
O  O104  1  0.94170722  0.23853370  0.26640115  1  -1.176669  0  -0.350214  -0.612271  0  2.265616  0
O  O105  1  0.23761301  0.92216643  0.57334380  1  -1.194027  0  -0.371385  -0.637548  0  2.255551  0
O  O106  1  0.23954188  0.76323368  0.42585806  1  -1.184149  0  -0.368805  -0.632173  0  2.260214  0
O  O107  1  0.92175611  0.06923571  0.74273238  1  -1.185898  0  -0.367342  -0.63157  0  2.261409  0
O  O108  1  0.76520534  0.24669587  0.56530130  1  -1.177389  0  -0.356689  -0.623004  0  2.259192  0
O  O109  1  0.07183625  0.93003351  0.25815163  1  -1.181121  0  -0.35679  -0.624004  0  2.262108  0
O  O110  1  0.05836681  0.92877776  0.74104681  1  -1.178939  0  -0.365693  -0.631971  0  2.276211  0
O  O111  1  0.77174880  0.24445017  0.42482537  1  -1.177749  0  -0.361029  -0.615828  0  2.260158  0
O  O112  1  0.93514482  0.07017377  0.26091165  1  -1.18363  0  -0.360003  -0.614232  0  2.263749  0
O  O113  1  0.23249314  0.76321878  0.56778468  1  -1.187709  0  -0.366499  -0.633411  0  2.276262  0
O  O114  1  0.91548755  0.77754766  0.72729427  1  -1.179868  0  -0.354587  -0.611392  0  2.299749  0
O  O115  1  0.24014583  0.05717662  0.43887380  1  -1.187571  0  -0.369159  -0.628226  0  2.315483  0
O  O116  1  0.07991374  0.23073833  0.27398120  1  -1.188831  0  -0.354564  -0.612003  0  2.304362  0
O  O117  1  0.76389601  0.93954101  0.55518541  1  -1.176881  0  -0.366344  -0.616025  0  2.292837  0
O  O118  1  0.75781470  0.07745637  0.73474217  1  -1.178415  0  -0.359023  -0.613943  0  2.258842  0
O  O119  1  0.06571438  0.77014889  0.41770189  1  -1.18208  0  -0.35766  -0.612837  0  2.254864  0
O  O120  1  0.24592907  0.92293398  0.26611589  1  -1.17772  0  -0.364638  -0.631973  0  2.263272  0
O  O121  1  0.93013293  0.23836514  0.57318834  1  -1.187751  0  -0.363409  -0.62982  0  2.264967  0
O  O122  1  0.81730144  0.06854138  0.55460698  1  -1.225517  0  -0.693463  -1.068543  0  2.351717  0
O  O123  1  0.05869515  0.05784657  0.56536684  1  -1.23215  0  -0.697522  -1.068045  0  2.365103  0
O  O124  1  0.06667941  0.05763061  0.31979673  1  -1.228075  0  -0.695442  -1.070077  0  2.360503  0
O  O125  1  0.05545958  0.82307379  0.55420844  1  -1.234868  0  -0.695712  -1.071153  0  2.362559  0
O  O126  1  0.13422779  0.95221374  0.45716428  1  -1.195747  0  -0.792143  -1.141988  0  2.129981  0
O  O127  1  0.95632660  0.96032977  0.44892282  1  -1.202263  0  -0.78912  -1.146943  0  2.118875  0
O  O128  1  0.95824466  0.13351404  0.45744610  1  -1.198849  0  -0.790412  -1.147207  0  2.122573  0
O  O129  1  0.95005149  0.96077032  0.63030301  1  -1.199473  0  -0.790571  -1.145522  0  2.123557  0
