# generated using pymatgen
data_Al3H43C60(N3O7)2
_symmetry_space_group_name_H-M   'P 1'
_cell_length_a   12.70194900
_cell_length_b   12.70832956
_cell_length_c   26.87561745
_cell_angle_alpha   90.10139740
_cell_angle_beta   90.00642832
_cell_angle_gamma   59.92051580
_symmetry_Int_Tables_number   1
_chemical_formula_structural   Al3H43C60(N3O7)2
_chemical_formula_sum   'Al6 H86 C120 N12 O28'
_cell_volume   3754.03798219
_cell_formula_units_Z   2
loop_
 _symmetry_equiv_pos_site_id
 _symmetry_equiv_pos_as_xyz
  1  'x, y, z'
loop_
 _atom_site_type_symbol
 _atom_site_label
 _atom_site_symmetry_multiplicity
 _atom_site_fract_x
 _atom_site_fract_y
 _atom_site_fract_z
 _atom_site_occupancy
 _atom_site_pbe_bader_charge
 _atom_site_pbe_bader_spin_density
 _atom_site_pbe_cm5_charge
 _atom_site_pbe_ddec_charge
 _atom_site_pbe_ddec_spin_density
 _atom_site_pbe_ddec_sum_bond_order
 _atom_site_pbe_magmom
Al  Al0  1  0.53351470  0.23454061  0.25064098  1  2.49304  0  0.395832  1.689252  0  2.548794  0
Al  Al1  1  0.27114266  0.47641522  0.25040603  1  2.478447  0  0.497553  1.659748  0  2.51695  0
Al  Al2  1  0.27968437  0.23683350  0.25026597  1  2.4755  0  0.500464  1.656204  0  2.511134  0
Al  Al3  1  0.76024240  0.46983617  0.75092776  1  2.494511  0  0.393124  1.690926  0  2.551211  0
Al  Al4  1  0.52192662  0.73364433  0.74983135  1  2.479147  0  0.497031  1.660613  0  2.516537  0
Al  Al5  1  0.76394844  0.72060033  0.75033000  1  2.481641  0  0.502529  1.659053  0  2.503551  0
H  H6  1  0.01732512  0.62869702  0.87076887  1  0.049489  0  0.104403  0.1046  0  1.022504  0
H  H7  1  0.27732676  0.13445527  0.11280341  1  0.115959  0  0.104122  0.104695  0  1.039158  0
H  H8  1  0.00507693  0.62394285  0.36431683  1  0.069115  0  0.108332  0.105597  0  1.022837  0
H  H9  1  0.56785121  0.27804364  0.11226788  1  0.110314  0  0.113058  0.121242  0  1.02129  0
H  H10  1  0.81580383  0.44524734  0.89500361  1  0.082494  0  0.106966  0.114554  0  1.017524  0
H  H11  1  0.63476500  0.03094328  0.63866838  1  0.082826  0  0.108361  0.117876  0  0.992427  0
H  H12  1  0.42209830  0.75035707  0.89036593  1  0.109919  0  0.101682  0.109096  0  1.026314  0
H  H13  1  0.03582463  0.33188024  0.63332365  1  0.11406  0  0.112216  0.124486  0  0.987265  0
H  H14  1  0.75628680  0.82190177  0.88986950  1  0.073  0  0.104818  0.109062  0  1.026777  0
H  H15  1  0.33065682  0.62327469  0.63611283  1  0.085186  0  0.105074  0.113426  0  0.997897  0
H  H16  1  0.54725534  0.20271351  0.39735340  1  0.085141  0  0.11013  0.118182  0  1.017107  0
H  H17  1  0.43709179  0.84288211  0.61763356  1  0.05627  0  0.106272  0.104665  0  1.040492  0
H  H18  1  0.96865213  0.37716033  0.13869552  1  0.040048  0  0.109158  0.117519  0  0.9907  0
H  H19  1  0.25486943  0.55075468  0.39173599  1  0.113066  0  0.104133  0.108696  0  1.026062  0
H  H20  1  0.66324759  0.95612120  0.13499823  1  0.086081  0  0.109496  0.116915  0  0.99578  0
H  H21  1  0.17936073  0.24081777  0.38898776  1  0.123646  0  0.104812  0.109944  0  1.028474  0
H  H22  1  0.38324309  0.66386797  0.13688100  1  0.078969  0  0.107642  0.113476  0  0.993563  0
H  H23  1  0.78593452  0.39131072  0.98099105  1  0.065119  0  0.099487  0.097431  0  1.033502  0
H  H24  1  0.63499242  0.16692016  0.57173816  1  0.049625  0  0.102955  0.101581  0  1.005552  0
H  H25  1  0.36858361  0.83448926  0.97658366  1  0.091728  0  0.094268  0.092272  0  1.05559  0
H  H26  1  0.15111191  0.19228248  0.56357050  1  0.047068  0  0.103704  0.101491  0  1.001662  0
H  H27  1  0.83744512  0.80025543  0.97495986  1  0.075314  0  0.095096  0.091276  0  1.059337  0
H  H28  1  0.61333529  0.36479675  0.86657957  1  0.054107  0  0.107511  0.10934  0  1.020227  0
H  H29  1  0.19617058  0.62607438  0.56664269  1  0.037311  0  0.101937  0.101491  0  1.001429  0
H  H30  1  0.60423344  0.22852934  0.48349925  1  0.070914  0  0.100058  0.099473  0  1.042125  0
H  H31  1  0.83941435  0.36850891  0.07020179  1  0.051673  0  0.10345  0.10374  0  1.000478  0
H  H32  1  0.16985728  0.60078842  0.47739789  1  0.088647  0  0.096167  0.093514  0  1.059376  0
H  H33  1  0.80416883  0.84231871  0.06504617  1  0.060052  0  0.102199  0.100589  0  1.004709  0
H  H34  1  0.19395160  0.15923726  0.47379369  1  0.091959  0  0.097633  0.096265  0  1.057159  0
H  H35  1  0.36271598  0.80310995  0.06673541  1  0.04078  0  0.101232  0.100149  0  1.012116  0
H  H36  1  0.16257382  0.64051489  0.90426360  1  0.407432  0  0.301956  0.248879  0  0.943184  0
H  H37  1  0.96341936  0.83834985  0.90973864  1  0.026657  0  0.085282  0.080253  0  1.021604  0
H  H38  1  0.09742869  0.85067635  0.90457036  1  0.051888  0  0.101712  0.113087  0  0.980969  0
H  H39  1  0.86034035  0.71709097  0.61305684  1  0.071692  0  0.10466  0.103517  0  1.037091  0
H  H40  1  0.02771974  0.86588370  0.96357428  1  0.038093  0  0.095922  0.09769  0  1.018424  0
H  H41  1  0.35897899  0.79872953  0.57207260  1  0.416171  0  0.294298  0.230498  0  0.994474  0
H  H42  1  0.16713612  0.83090398  0.55501011  1  0.035479  0  0.09434  0.094173  0  1.042665  0
H  H43  1  0.15758663  0.91164843  0.49959705  1  0.063778  0  0.100644  0.111095  0  1.024207  0
H  H44  1  0.14442830  0.98144134  0.55854847  1  0.022261  0  0.08504  0.082251  0  1.018561  0
H  H45  1  0.62069550  0.21212913  0.89902733  1  0.402367  0  0.301187  0.246983  0  0.946723  0
H  H46  1  0.82098077  0.20637695  0.90598271  1  0.035336  0  0.087962  0.085481  0  1.013364  0
H  H47  1  0.82887116  0.06262113  0.89790861  1  0.037634  0  0.101159  0.11064  0  0.991955  0
H  H48  1  0.84685055  0.11001605  0.95810604  1  0.042613  0  0.096328  0.09942  0  1.016971  0
H  H49  1  0.80078906  0.83861996  0.56511413  1  0.410809  0  0.293154  0.228865  0  0.995646  0
H  H50  1  0.37468796  0.98604194  0.86496750  1  0.066516  0  0.107885  0.102398  0  1.03021  0
H  H51  1  0.98157901  0.86891558  0.55369970  1  0.006451  0  0.085642  0.084524  0  1.018819  0
H  H52  1  0.83436667  0.99867384  0.54348042  1  0.049053  0  0.09465  0.096086  0  1.042124  0
H  H53  1  0.92545077  0.91282465  0.49197921  1  0.065796  0  0.101396  0.110533  0  1.022918  0
H  H54  1  0.23484069  0.07960133  0.89229733  1  0.433577  0  0.303898  0.237864  0  0.990628  0
H  H55  1  0.03563597  0.15896346  0.89848345  1  0.046883  0  0.1025  0.105965  0  0.987929  0
H  H56  1  0.03226374  0.21456034  0.95984837  1  0.071467  0  0.096243  0.105596  0  1.059794  0
H  H57  1  0.07112728  0.06047152  0.95067110  1  0.003038  0  0.086998  0.081372  0  1.022695  0
H  H58  1  0.84784508  0.38030549  0.56292279  1  0.406437  0  0.287685  0.230347  0  0.990824  0
H  H59  1  0.97675457  0.16948839  0.56767695  1  0.013586  0  0.095699  0.098509  0  1.028933  0
H  H60  1  0.89233774  0.14774533  0.52004286  1  0.040302  0  0.099897  0.110002  0  0.992338  0
H  H61  1  0.71799740  0.42502013  0.61639285  1  0.120267  0  0.111547  0.115563  0  1.023329  0
H  H62  1  0.82740791  0.19622510  0.58068556  1  -0.002996  0  0.086943  0.085819  0  1.005157  0
H  H63  1  0.27093492  0.95613786  0.40468947  1  0.420708  0  0.300685  0.23806  0  0.974023  0
H  H64  1  0.24680242  0.78291836  0.40883317  1  0.039218  0  0.098452  0.108621  0  0.98594  0
H  H65  1  0.32607591  0.74284555  0.46665210  1  0.092135  0  0.098728  0.104345  0  1.074553  0
H  H66  1  0.40675042  0.72874073  0.41075432  1  0.045819  0  0.087633  0.092151  0  0.993615  0
H  H67  1  0.20405473  0.70366325  0.00912158  1  0.431193  0  0.292407  0.231003  0  1.001318  0
H  H68  1  0.02887247  0.86588129  0.05734043  1  -0.013954  0  0.082326  0.075121  0  1.025532  0
H  H69  1  0.17387854  0.80703541  0.08655555  1  0.032458  0  0.099048  0.105737  0  1.016188  0
H  H70  1  0.07276017  0.75736267  0.10609970  1  0.051977  0  0.103007  0.113732  0  1.002674  0
H  H71  1  0.88082867  0.30236451  0.45900741  1  0.424302  0  0.291409  0.231317  0  0.999582  0
H  H72  1  0.36876938  0.99830706  0.37170336  1  0.066017  0  0.106698  0.103798  0  1.024387  0
H  H73  1  0.90009632  0.34469681  0.37276255  1  0.042945  0  0.099272  0.112691  0  0.988003  0
H  H74  1  0.83364574  0.47815354  0.41074485  1  0.051411  0  0.086191  0.088489  0  1.015759  0
H  H75  1  0.74078088  0.44615534  0.37133239  1  0.021168  0  0.100496  0.108483  0  1.016323  0
H  H76  1  0.15071973  0.22848382  0.05386228  1  0.40309  0  0.286384  0.22579  0  0.988032  0
H  H77  1  0.10853388  0.02450769  0.03365562  1  0.021902  0  0.089192  0.087216  0  1.028347  0
H  H78  1  0.02680113  0.14890734  0.07497207  1  0.030064  0  0.095397  0.0997  0  1.012476  0
H  H79  1  0.17746099  0.03137451  0.09038338  1  -0.020888  0  0.082461  0.078134  0  1.019594  0
H  H80  1  0.94305477  0.76650290  0.39551023  1  0.414414  0  0.301181  0.238181  0  0.977485  0
H  H81  1  0.77671188  0.96240943  0.39931704  1  0.057471  0  0.106257  0.122397  0  0.972245  0
H  H82  1  0.74400321  0.93669389  0.46126320  1  0.088575  0  0.096787  0.102713  0  1.075497  0
H  H83  1  0.16232513  0.57018939  0.11595337  1  0.114422  0  0.112025  0.118895  0  1.024922  0
H  H84  1  0.71504964  0.86536728  0.41055489  1  0.008468  0  0.088006  0.092922  0  0.993373  0
H  H85  1  0.68893048  0.10210008  0.00534288  1  0.427489  0  0.292393  0.230478  0  0.999433  0
H  H86  1  0.85932194  0.10222799  0.04920014  1  -0.001085  0  0.080856  0.071387  0  1.034018  0
H  H87  1  0.78993658  0.03635390  0.08604100  1  0.039326  0  0.098196  0.105224  0  1.014687  0
H  H88  1  0.75458621  0.18790612  0.09718871  1  0.060184  0  0.103269  0.113588  0  1.006303  0
H  H89  1  0.64080222  0.36708400  0.36914512  1  0.092148  0  0.117405  0.128463  0  1.001902  0
H  H90  1  0.73218183  0.16410032  0.22249267  1  0.559622  0  0.284916  0.372479  0  0.940194  0
H  H91  1  0.87117168  0.27184786  0.78183606  1  0.578266  0  0.282437  0.368345  0  0.947014  0
C  C92  1  0.44972696  0.43963740  0.17988535  1  1.565647  0  0.272712  0.649527  0  4.076211  0
C  C93  1  0.54072109  0.57463335  0.82165020  1  1.556704  0  0.26771  0.639074  0  4.093023  0
C  C94  1  0.11813212  0.26950684  0.53825614  1  -0.023663  0  -0.083718  -0.118266  0  3.999842  0
C  C95  1  0.74547578  0.85294632  0.98982972  1  -0.005122  0  -0.092562  -0.131013  0  3.990598  0
C  C96  1  0.27455493  0.58691099  0.54164343  1  -0.019083  0  -0.086669  -0.125414  0  3.998886  0
C  C97  1  0.57346117  0.16816612  0.49765967  1  0.018017  0  -0.081998  -0.113684  0  3.965894  0
C  C98  1  0.87469505  0.41075166  0.04493777  1  0.025451  0  -0.086097  -0.125903  0  3.995208  0
C  C99  1  0.25996008  0.57222385  0.49229637  1  -0.028575  0  -0.087422  -0.118968  0  3.974878  0
C  C100  1  0.72696119  0.87630026  0.03960207  1  -0.06913  0  -0.085266  -0.121285  0  3.997783  0
C  C101  1  0.14264061  0.25117441  0.48863054  1  -0.04914  0  -0.088085  -0.120044  0  3.978447  0
C  C102  1  0.40132645  0.72540741  0.04136566  1  -0.017675  0  -0.088404  -0.12894  0  3.998102  0
C  C103  1  0.05017243  0.81652851  0.92798576  1  0.254273  0  -0.143498  -0.219767  0  3.994299  0
C  C104  1  0.56959516  0.87339632  0.68193125  1  1.527156  0  0.275716  0.652204  0  4.065708  0
C  C105  1  0.19118140  0.89434691  0.53804882  1  0.282301  0  -0.145195  -0.220424  0  3.973667  0
C  C106  1  0.79732521  0.14145604  0.92275698  1  0.248008  0  -0.143635  -0.216832  0  3.97845  0
C  C107  1  0.89914038  0.90680104  0.53033297  1  0.279186  0  -0.145775  -0.219474  0  3.961521  0
C  C108  1  0.07972204  0.13619934  0.93511658  1  0.317499  0  -0.140351  -0.210369  0  3.982877  0
C  C109  1  0.88535501  0.20474755  0.55209055  1  0.316691  0  -0.145407  -0.216514  0  3.967432  0
C  C110  1  0.31943549  0.78442169  0.43033483  1  0.249528  0  -0.148996  -0.225539  0  3.978388  0
C  C111  1  0.10647234  0.78338889  0.07356799  1  0.329489  0  -0.140894  -0.215159  0  3.96625  0
C  C112  1  0.82058299  0.40472218  0.39554035  1  0.276044  0  -0.144136  -0.214335  0  3.95024  0
C  C113  1  0.11737397  0.08675215  0.05954800  1  0.309551  0  -0.147808  -0.218886  0  3.998757  0
C  C114  1  0.77782127  0.89466999  0.42486326  1  0.2665  0  -0.147924  -0.227929  0  3.965569  0
C  C115  1  0.88317286  0.54684107  0.82469789  1  1.538037  0  0.269814  0.645058  0  4.080835  0
C  C116  1  0.77420357  0.12034009  0.06794676  1  0.273922  0  -0.141782  -0.218579  0  3.974823  0
C  C117  1  0.99200651  0.51518108  0.03240562  1  -0.003776  0  0.003855  0.003269  0  3.937209  0
C  C118  1  0.47216625  0.04918404  0.48239480  1  -0.011293  0  0.001398  -0.000383  0  3.947068  0
C  C119  1  0.50539344  0.50388094  0.02842607  1  -0.001374  0  0.002661  0.00365  0  3.939865  0
C  C120  1  0.03663120  0.47242841  0.47432465  1  -0.018213  0  0.00052  -0.001324  0  3.943392  0
C  C121  1  0.50510330  0.98512518  0.02695470  1  0.027801  0  -0.004295  -0.009327  0  3.942225  0
C  C122  1  0.48040729  0.48120442  0.47775611  1  -0.029932  0  0.004091  -0.001791  0  3.942414  0
C  C123  1  0.49153983  0.01196943  0.53286318  1  0.035444  0  0.001171  0.000478  0  3.937721  0
C  C124  1  0.13442663  0.41124029  0.31973740  1  1.510572  0  0.274479  0.64603  0  4.074962  0
C  C125  1  0.96612611  0.52298098  0.98071479  1  -0.010118  0  0.000262  -0.001153  0  3.934448  0
C  C126  1  0.49531446  0.49280960  0.52939661  1  -0.016754  0  -0.001992  -0.00588  0  3.947251  0
C  C127  1  0.52373972  0.96002234  0.97520256  1  0.0345  0  0.007039  0.012551  0  3.927658  0
C  C128  1  0.00693749  0.49140388  0.52567735  1  -0.109174  0  -0.001307  -0.004217  0  3.94049  0
C  C129  1  0.50705824  0.52217645  0.97648159  1  -0.017898  0  -0.002182  -0.004308  0  3.942487  0
C  C130  1  0.10054207  0.62995940  0.01905282  1  0.384991  0  0.097865  0.104952  0  4.024924  0
C  C131  1  0.35973557  0.93748708  0.46916245  1  0.374047  0  0.08384  0.076409  0  4.040724  0
C  C132  1  0.61805706  0.27991798  0.01446353  1  0.416668  0  0.095572  0.101759  0  4.03512  0
C  C133  1  0.93259865  0.69690755  0.46142891  1  0.40516  0  0.08581  0.078076  0  4.033842  0
C  C134  1  0.28109507  0.09000295  0.01293755  1  0.388212  0  0.063228  0.047728  0  3.982927  0
C  C135  1  0.44566694  0.09945565  0.17978024  1  1.558093  0  0.270597  0.63814  0  4.073423  0
C  C136  1  0.70434234  0.38427527  0.46527095  1  0.36711  0  0.095654  0.101072  0  4.038325  0
C  C137  1  0.37618136  0.90311504  0.51922060  1  0.427822  0  0.08466  0.07897  0  4.008499  0
C  C138  1  0.08255280  0.62976333  0.96799498  1  0.414357  0  0.069928  0.053273  0  4.019502  0
C  C139  1  0.71839243  0.38618507  0.51647358  1  0.397665  0  0.068693  0.053868  0  4.02603  0
C  C140  1  0.29805970  0.06574601  0.96199142  1  0.400859  0  0.103137  0.104465  0  4.060673  0
C  C141  1  0.90278940  0.71534850  0.51210533  1  0.410304  0  0.083661  0.075901  0  4.007128  0
C  C142  1  0.61362005  0.29827320  0.96343150  1  0.37697  0  0.068443  0.051463  0  4.036383  0
C  C143  1  0.10099846  0.54111946  0.10145856  1  -0.021824  0  -0.07922  -0.132944  0  3.925326  0
C  C144  1  0.40793139  0.03277341  0.39881155  1  -0.129775  0  -0.08851  -0.156056  0  3.983851  0
C  C145  1  0.53855060  0.36823526  0.09758793  1  -0.082291  0  -0.081228  -0.135817  0  3.938032  0
C  C146  1  0.43089137  0.45010471  0.32201743  1  1.53061  0  0.270626  0.635815  0  4.098426  0
C  C147  1  0.02984107  0.55100177  0.39111844  1  0.003295  0  -0.086167  -0.151813  0  3.969373  0
C  C148  1  0.36805932  0.08143749  0.09686302  1  -0.114754  0  -0.088872  -0.153853  0  3.943033  0
C  C149  1  0.56472260  0.41611709  0.39455914  1  -0.108427  0  -0.077661  -0.137055  0  3.942922  0
C  C150  1  0.47013352  0.89907873  0.60108780  1  -0.016411  0  -0.087977  -0.146523  0  3.947764  0
C  C151  1  0.98645457  0.58415811  0.89682716  1  0.002389  0  -0.089624  -0.15501  0  3.969124  0
C  C152  1  0.62847584  0.46104161  0.59957313  1  -0.01471  0  -0.086742  -0.147649  0  3.946988  0
C  C153  1  0.44622329  0.96715147  0.89188568  1  -0.076176  0  -0.085024  -0.148825  0  3.9729  0
C  C154  1  0.91033941  0.62735492  0.59593894  1  -0.087936  0  -0.089189  -0.150593  0  3.94463  0
C  C155  1  0.56630815  0.43999642  0.89271064  1  -0.021346  0  -0.09096  -0.158034  0  3.978052  0
C  C156  1  0.91688434  0.53556622  0.87831032  1  0.010463  0  -0.018523  -0.037585  0  4.020212  0
C  C157  1  0.12863324  0.43813439  0.18187552  1  1.530103  0  0.275274  0.650403  0  4.069747  0
C  C158  1  0.53993932  0.92985439  0.63176161  1  0.007246  0  -0.021857  -0.045574  0  4.039942  0
C  C159  1  0.51684935  0.55821835  0.87425994  1  -0.078374  0  -0.022459  -0.041937  0  4.045193  0
C  C160  1  0.94272085  0.52727326  0.62698548  1  -0.02811  0  -0.018897  -0.035418  0  4.030292  0
C  C161  1  0.56505523  0.90613654  0.87303676  1  0.005021  0  -0.021806  -0.047746  0  4.033954  0
C  C162  1  0.52687479  0.52959415  0.62982284  1  0.014015  0  -0.019827  -0.038658  0  4.04267  0
C  C163  1  0.45813849  0.10051056  0.38024590  1  0.018821  0  -0.016875  -0.041644  0  4.031396  0
C  C164  1  0.07022654  0.47123019  0.13198855  1  -0.006831  0  -0.019392  -0.045349  0  4.023452  0
C  C165  1  0.44686741  0.46411523  0.37574245  1  0.023157  0  -0.01866  -0.049681  0  4.042584  0
C  C166  1  0.46796510  0.04952975  0.12808805  1  -0.010441  0  -0.015896  -0.027617  0  4.008169  0
C  C167  1  0.09314908  0.43227676  0.37233117  1  -0.06855  0  -0.019668  -0.047461  0  4.0372  0
C  C168  1  0.45334529  0.12481311  0.32594461  1  1.564053  0  0.272676  0.637304  0  4.089709  0
C  C169  1  0.47415157  0.46849322  0.12909536  1  -0.080962  0  -0.018572  -0.042663  0  4.02288  0
C  C170  1  0.06231095  0.56508997  0.05184272  1  -0.020898  0  -0.006038  0.009181  0  4.00865  0
C  C171  1  0.41233076  0.00665838  0.44972063  1  0.057246  0  -0.009765  -0.006541  0  4.056171  0
C  C172  1  0.55715929  0.38325732  0.04752273  1  0.05752  0  -0.007727  0.008431  0  4.020634  0
C  C173  1  0.99931622  0.57438811  0.44175139  1  0.003274  0  -0.009235  -0.009311  0  4.049144  0
C  C174  1  0.38357103  0.05145806  0.04587218  1  -0.020344  0  -0.00926  0.011615  0  4.043153  0
C  C175  1  0.58371933  0.42858925  0.44500899  1  0.065734  0  -0.00672  -0.001219  0  4.014372  0
C  C176  1  0.44712618  0.93565340  0.55116418  1  -0.020439  0  -0.007869  0.007645  0  4.032676  0
C  C177  1  0.01438384  0.57724934  0.94776941  1  -0.031222  0  -0.009945  0.00388  0  4.052059  0
C  C178  1  0.61531018  0.44457217  0.54893117  1  -0.083021  0  -0.01083  0.010092  0  4.070245  0
C  C179  1  0.55437891  0.55565011  0.68054927  1  1.557871  0  0.273681  0.64218  0  4.088199  0
C  C180  1  0.42226141  0.99853082  0.94227901  1  -0.001137  0  -0.007194  -0.005356  0  4.006606  0
C  C181  1  0.93806218  0.61271412  0.54478934  1  0.050071  0  -0.00894  0.006392  0  4.027803  0
C  C182  1  0.56002647  0.41923989  0.94352918  1  -0.011003  0  -0.01165  0.003045  0  4.061663  0
C  C183  1  0.99430421  0.42909906  0.11425081  1  -0.03095  0  -0.082983  -0.155514  0  3.939522  0
C  C184  1  0.51019502  0.14848974  0.41240443  1  -0.00354  0  -0.075827  -0.138521  0  3.904142  0
C  C185  1  0.43150731  0.58659337  0.11177673  1  0.053589  0  -0.079685  -0.143099  0  3.934573  0
C  C186  1  0.12824248  0.33279000  0.40387186  1  -0.039063  0  -0.080479  -0.144786  0  3.927898  0
C  C187  1  0.58675356  0.98066126  0.11000700  1  0.018571  0  -0.084034  -0.154065  0  3.935519  0
C  C188  1  0.34554318  0.51674442  0.40719531  1  -0.002188  0  -0.077678  -0.137753  0  3.923569  0
C  C189  1  0.58264444  0.00532950  0.61425555  1  -0.042512  0  -0.089335  -0.166103  0  3.945504  0
C  C190  1  0.58655392  0.86534473  0.82041383  1  1.527897  0  0.273748  0.647511  0  4.079793  0
C  C191  1  0.87094098  0.48120670  0.91028736  1  -0.038502  0  -0.081503  -0.146458  0  3.915079  0
C  C192  1  0.40897181  0.57354534  0.61163343  1  -0.128484  0  -0.091641  -0.172149  0  3.954689  0
C  C193  1  0.66412887  0.87182748  0.90474800  1  -0.02288  0  -0.078623  -0.135757  0  3.920282  0
C  C194  1  0.01101227  0.40871315  0.60854173  1  -0.045148  0  -0.08692  -0.167454  0  3.944614  0
C  C195  1  0.45890187  0.65930491  0.90572740  1  -0.02673  0  -0.087634  -0.152482  0  3.932797  0
C  C196  1  0.95250078  0.45219744  0.06485476  1  -0.016991  0  -0.00534  0.07623  0  4.032419  0
C  C197  1  0.51700238  0.12441807  0.46360509  1  -0.058025  0  -0.001744  0.083192  0  4.016701  0
C  C198  1  0.44726596  0.60584860  0.06155672  1  -0.029024  0  -0.005515  0.078274  0  4.032324  0
C  C199  1  0.10255615  0.35134562  0.45496030  1  -0.005686  0  -0.002284  0.085874  0  4.013674  0
C  C200  1  0.60668205  0.94625535  0.05973709  1  -0.06971  0  -0.005127  0.082686  0  4.038453  0
C  C201  1  0.89520655  0.54979839  0.67900541  1  1.557029  0  0.270547  0.637738  0  4.083305  0
C  C202  1  0.36108876  0.52225072  0.45854766  1  -0.040206  0  -0.003777  0.079387  0  4.02603  0
C  C203  1  0.55542222  0.05037616  0.56536357  1  -0.011056  0  -0.003874  0.082015  0  4.031561  0
C  C204  1  0.89312566  0.47577902  0.96159150  1  0.005754  0  -0.003866  0.083418  0  4.02411  0
C  C205  1  0.39219948  0.55122477  0.56180064  1  0.026589  0  -0.005691  0.082573  0  4.04088  0
C  C206  1  0.64519803  0.89509507  0.95593298  1  -0.023989  0  -0.004614  0.082919  0  4.020244  0
C  C207  1  0.04676211  0.38952567  0.55836875  1  0.048494  0  -0.003418  0.080776  0  4.04218  0
C  C208  1  0.45549817  0.64265580  0.95718654  1  -0.044306  0  -0.008156  0.080034  0  4.040637  0
C  C209  1  0.84535812  0.42306101  0.99561167  1  -0.0893  0  -0.083817  -0.117007  0  3.982197  0
C  C210  1  0.59143072  0.13309980  0.54636120  1  -0.073323  0  -0.086375  -0.127214  0  3.991956  0
C  C211  1  0.40447032  0.74298580  0.99137796  1  -0.05025  0  -0.091408  -0.126832  0  3.986764  0
N  N212  1  0.13084909  0.68627537  0.93697634  1  -1.115931  0  -0.472203  -0.337853  0  3.500663  0
N  N213  1  0.16045082  0.15771517  0.03250804  1  -1.083431  0  -0.476214  -0.325744  0  3.498153  0
N  N214  1  0.90277249  0.79373818  0.42927137  1  -1.1523  0  -0.45736  -0.29074  0  3.562256  0
N  N215  1  0.67195716  0.16260636  0.03353785  1  -1.132279  0  -0.456792  -0.297004  0  3.546767  0
N  N216  1  0.32325959  0.83888895  0.53893939  1  -1.164142  0  -0.46037  -0.291125  0  3.563518  0
N  N217  1  0.66655657  0.19426389  0.93185056  1  -1.115389  0  -0.473673  -0.338046  0  3.496365  0
N  N218  1  0.84054659  0.83316381  0.53173234  1  -1.159603  0  -0.461552  -0.29393  0  3.561595  0
N  N219  1  0.20599840  0.10297674  0.92771526  1  -1.195194  0  -0.443398  -0.258526  0  3.61352  0
N  N220  1  0.83912562  0.33011363  0.53529775  1  -1.129186  0  -0.47506  -0.34117  0  3.526407  0
N  N221  1  0.28999660  0.91016620  0.43730114  1  -1.184522  0  -0.460412  -0.294942  0  3.564929  0
N  N222  1  0.16441127  0.68353028  0.03786593  1  -1.162596  0  -0.456814  -0.298862  0  3.551765  0
N  N223  1  0.80795385  0.33256335  0.43534493  1  -1.133054  0  -0.458881  -0.302506  0  3.481058  0
O  O224  1  0.52416048  0.11823976  0.20013351  1  -1.236884  0  -0.215994  -0.559416  0  2.303254  0
O  O225  1  0.85149604  0.47363573  0.80811741  1  -1.254758  0  -0.222528  -0.58786  0  2.382055  0
O  O226  1  0.47604515  0.65505171  0.70237614  1  -1.27579  0  -0.251304  -0.616424  0  2.26139  0
O  O227  1  0.69094963  0.83503065  0.80160157  1  -1.27277  0  -0.240456  -0.603338  0  2.301099  0
O  O228  1  0.52359471  0.33350672  0.19527103  1  -1.265931  0  -0.223153  -0.593576  0  2.403048  0
O  O229  1  0.14662302  0.49320253  0.29751947  1  -1.253755  0  -0.237347  -0.597451  0  2.300231  0
O  O230  1  0.34159583  0.12606034  0.19950862  1  -1.278482  0  -0.254313  -0.619805  0  2.267111  0
O  O231  1  0.51647513  0.36442356  0.29822062  1  -1.241266  0  -0.218033  -0.562402  0  2.328204  0
O  O232  1  0.15753685  0.51347985  0.20060730  1  -1.27484  0  -0.238755  -0.605943  0  2.316171  0
O  O233  1  0.37057877  0.12020353  0.29965527  1  -1.277376  0  -0.254771  -0.622361  0  2.274499  0
O  O234  1  0.65769671  0.48004835  0.69765529  1  -1.257053  0  -0.211884  -0.554626  0  2.385252  0
O  O235  1  0.32549466  0.52681728  0.30331537  1  -1.279187  0  -0.25453  -0.620198  0  2.272956  0
O  O236  1  0.50322459  0.85610736  0.79761738  1  -1.259049  0  -0.238216  -0.598497  0  2.300328  0
O  O237  1  0.87319113  0.65199581  0.69893822  1  -1.277749  0  -0.253629  -0.620483  0  2.280304  0
O  O238  1  0.63360596  0.48958151  0.80086958  1  -1.239018  0  -0.220417  -0.570787  0  2.33927  0
O  O239  1  0.49271559  0.84620549  0.70021079  1  -1.275488  0  -0.239024  -0.607749  0  2.32164  0
O  O240  1  0.88362422  0.63228247  0.79897304  1  -1.273323  0  -0.251822  -0.612848  0  2.261242  0
O  O241  1  0.35930656  0.31687289  0.24998226  1  -1.607377  0  -0.391193  -1.259868  0  2.288654  0
O  O242  1  0.68149474  0.64333551  0.75050932  1  -1.609386  0  -0.390848  -1.259858  0  2.284804  0
O  O243  1  0.15291546  0.33737331  0.20171744  1  -1.255103  0  -0.233132  -0.589945  0  2.275738  0
O  O244  1  0.52961681  0.15169877  0.30905659  1  -1.246587  0  -0.209373  -0.541607  0  2.354379  0
O  O245  1  0.35455994  0.51900992  0.20359004  1  -1.271639  0  -0.247824  -0.608498  0  2.254327  0
O  O246  1  0.16279060  0.30767988  0.30029400  1  -1.272578  0  -0.241038  -0.60318  0  2.292379  0
O  O247  1  0.87430306  0.47273386  0.69936767  1  -1.234501  0  -0.214694  -0.554929  0  2.306132  0
O  O248  1  0.46728540  0.67872748  0.80144782  1  -1.290091  0  -0.254666  -0.620244  0  2.278756  0
O  O249  1  0.66995398  0.84845339  0.70274315  1  -1.264308  0  -0.234901  -0.594834  0  2.274648  0
O  O250  1  0.69337757  0.15346583  0.25144451  1  -1.358013  0  -0.583377  -0.998516  0  1.798172  0
O  O251  1  0.83386513  0.30990791  0.75061877  1  -1.379317  0  -0.584633  -0.997316  0  1.799894  0
