# generated using pymatgen
data_AlH7C8N2O5
_symmetry_space_group_name_H-M   'P 1'
_cell_length_a   6.67540204
_cell_length_b   10.87068345
_cell_length_c   18.04793032
_cell_angle_alpha   89.78157387
_cell_angle_beta   92.52120905
_cell_angle_gamma   90.53376204
_symmetry_Int_Tables_number   1
_chemical_formula_structural   AlH7C8N2O5
_chemical_formula_sum   'Al4 H28 C32 N8 O20'
_cell_volume   1308.33729063
_cell_formula_units_Z   4
loop_
 _symmetry_equiv_pos_site_id
 _symmetry_equiv_pos_as_xyz
  1  'x, y, z'
loop_
 _atom_site_type_symbol
 _atom_site_label
 _atom_site_symmetry_multiplicity
 _atom_site_fract_x
 _atom_site_fract_y
 _atom_site_fract_z
 _atom_site_occupancy
 _atom_site_pbe_bader_charge
 _atom_site_pbe_bader_spin_density
 _atom_site_pbe_cm5_charge
 _atom_site_pbe_ddec_charge
 _atom_site_pbe_ddec_spin_density
 _atom_site_pbe_ddec_sum_bond_order
 _atom_site_pbe_magmom
Al  Al0  1  0.99626895  0.99911647  0.50235415  1  2.504178  0  0.396014  1.640038  0  2.583269  0
Al  Al1  1  0.49572519  0.00033112  0.49959549  1  2.501696  0  0.394113  1.63916  0  2.592617  0
Al  Al2  1  0.00435121  0.49909239  0.00033600  1  2.50309  0  0.393981  1.638987  0  2.592775  0
Al  Al3  1  0.50366379  0.50049504  0.99773292  1  2.503319  0  0.395874  1.640597  0  2.583379  0
H  H4  1  0.23617515  0.84546692  0.47081008  1  0.623336  0  0.35161  0.427791  0  0.855493  0
H  H5  1  0.74877828  0.16439842  0.49364266  1  0.604801  0  0.358833  0.439348  0  0.837092  0
H  H6  1  0.26359777  0.65378006  0.02984479  1  0.621501  0  0.351762  0.428004  0  0.856161  0
H  H7  1  0.75078154  0.33477158  0.00352360  1  0.599108  0  0.358801  0.439265  0  0.836921  0
H  H8  1  0.44966758  0.64451765  0.79465178  1  0.08666  0  0.105787  0.116933  0  1.023788  0
H  H9  1  0.04981590  0.85906855  0.70696297  1  0.09494  0  0.105257  0.116033  0  1.024709  0
H  H10  1  0.95955777  0.25082867  0.15987336  1  0.105738  0  0.104138  0.118018  0  1.02294  0
H  H11  1  0.54002433  0.24695835  0.33922728  1  0.085724  0  0.104143  0.118602  0  1.023665  0
H  H12  1  0.54134483  0.25627260  0.83886495  1  0.080449  0  0.105216  0.119287  0  1.021776  0
H  H13  1  0.95903839  0.24515417  0.66029300  1  0.104873  0  0.105384  0.119854  0  1.023106  0
H  H14  1  0.46311921  0.74584341  0.15939172  1  0.076307  0  0.102909  0.113827  0  1.026725  0
H  H15  1  0.03744872  0.75256108  0.34115202  1  0.086986  0  0.102952  0.113734  0  1.026357  0
H  H16  1  0.37893333  0.79070432  0.61489576  1  0.494265  0  0.302148  0.31353  0  0.988448  0
H  H17  1  0.27133491  0.70337017  0.68346299  1  0.437051  0  0.30155  0.296879  0  0.963311  0
H  H18  1  0.12024863  0.71244745  0.88654236  1  0.501044  0  0.302014  0.312563  0  0.987888  0
H  H19  1  0.22778209  0.80042565  0.81835820  1  0.45614  0  0.301049  0.296042  0  0.964478  0
H  H20  1  0.87104646  0.09813936  0.33458909  1  0.491868  0  0.302701  0.309052  0  0.993524  0
H  H21  1  0.77562440  0.13084375  0.24501018  1  0.447238  0  0.308884  0.308304  0  0.941772  0
H  H22  1  0.63062286  0.39806893  0.16410192  1  0.529323  0  0.304252  0.311929  0  0.992368  0
H  H23  1  0.72761403  0.36185725  0.25366432  1  0.460194  0  0.309057  0.310168  0  0.946163  0
H  H24  1  0.62499273  0.09746129  0.66682821  1  0.494237  0  0.303914  0.308866  0  0.991772  0
H  H25  1  0.72103123  0.13298511  0.75573919  1  0.452809  0  0.309429  0.308016  0  0.941384  0
H  H26  1  0.87374840  0.40367210  0.83241402  1  0.522162  0  0.305194  0.311815  0  0.990553  0
H  H27  1  0.77611975  0.36418978  0.74367317  1  0.447504  0  0.309958  0.310609  0  0.944933  0
H  H28  1  0.37642097  0.90934518  0.32866235  1  0.478604  0  0.301925  0.304174  0  0.997512  0
H  H29  1  0.28162863  0.86813233  0.24055262  1  0.458424  0  0.308925  0.308365  0  0.939358  0
H  H30  1  0.12372914  0.58894970  0.17182442  1  0.470722  0  0.301656  0.304657  0  0.996299  0
H  H31  1  0.21878544  0.62999716  0.25985877  1  0.452734  0  0.309165  0.309284  0  0.9382  0
C  C32  1  0.72916920  0.86528905  0.39354972  1  1.52174  0  0.259686  0.647523  0  4.073319  0
C  C33  1  0.75925210  0.86456933  0.60616998  1  1.520825  0  0.261182  0.646602  0  4.080098  0
C  C34  1  0.26481396  0.13241604  0.60711297  1  1.524463  0  0.265757  0.655459  0  4.065877  0
C  C35  1  0.23043066  0.13630484  0.39438099  1  1.518105  0  0.257663  0.643234  0  4.085375  0
C  C36  1  0.77111495  0.63308886  0.10699546  1  1.520994  0  0.259891  0.647088  0  4.071383  0
C  C37  1  0.74081353  0.63730519  0.89492506  1  1.520832  0  0.26147  0.646192  0  4.081065  0
C  C38  1  0.23534260  0.36862225  0.89214736  1  1.523525  0  0.264071  0.654058  0  4.067699  0
C  C39  1  0.26931366  0.36198404  0.10493026  1  1.512207  0  0.256234  0.642419  0  4.087995  0
C  C40  1  0.74766742  0.80516559  0.67960132  1  -0.019578  0  -0.028355  -0.145856  0  3.970735  0
C  C41  1  0.75185690  0.69824638  0.82192498  1  -0.034719  0  -0.027879  -0.142998  0  3.970178  0
C  C42  1  0.56939896  0.74569241  0.70332255  1  0.435522  0  0.093353  0.277755  0  4.102023  0
C  C43  1  0.92987322  0.75810281  0.79832506  1  0.479339  0  0.092712  0.275529  0  4.101988  0
C  C44  1  0.57995067  0.69349006  0.77456333  1  -0.006564  0  -0.10585  -0.221501  0  3.980582  0
C  C45  1  0.91941148  0.81026310  0.72709001  1  -0.058835  0  -0.106022  -0.220371  0  3.979659  0
C  C46  1  0.23280476  0.19526385  0.32034151  1  -0.021948  0  -0.030916  -0.147673  0  3.975757  0
C  C47  1  0.26660629  0.30284157  0.17880931  1  0.023772  0  -0.030987  -0.150037  0  3.976256  0
C  C48  1  0.06217586  0.19438453  0.26950414  1  0.437986  0  0.089713  0.270346  0  4.105867  0
C  C49  1  0.43707207  0.30401255  0.22973937  1  0.409207  0  0.093088  0.276608  0  4.107339  0
C  C50  1  0.08661204  0.24863667  0.19984536  1  -0.043716  0  -0.107596  -0.216883  0  3.985484  0
C  C51  1  0.41277620  0.24927248  0.29937082  1  -0.013979  0  -0.106832  -0.215974  0  3.978702  0
C  C52  1  0.26492242  0.19414423  0.67987865  1  -0.037499  0  -0.02675  -0.142907  0  3.968548  0
C  C53  1  0.23559202  0.30755066  0.81925541  1  -0.012247  0  -0.027954  -0.147347  0  3.97054  0
C  C54  1  0.43617954  0.19557958  0.73041570  1  0.44644  0  0.092  0.270756  0  4.104368  0
C  C55  1  0.06464505  0.30672961  0.76855129  1  0.478791  0  0.095814  0.278934  0  4.103707  0
C  C56  1  0.41393041  0.25257247  0.79907395  1  -0.019499  0  -0.105514  -0.214944  0  3.980055  0
C  C57  1  0.08664278  0.24903279  0.69997751  1  -0.026723  0  -0.104532  -0.214014  0  3.971921  0
C  C58  1  0.73285165  0.80528265  0.32012643  1  -0.037479  0  -0.030714  -0.149822  0  3.97399  0
C  C59  1  0.76779156  0.69329531  0.18036267  1  -0.018685  0  -0.029378  -0.14678  0  3.97188  0
C  C60  1  0.56444959  0.80540303  0.26832597  1  0.46377  0  0.092027  0.272179  0  4.099193  0
C  C61  1  0.93626279  0.69320560  0.23213927  1  0.413576  0  0.091088  0.270767  0  4.100199  0
C  C62  1  0.58921052  0.74862459  0.19974941  1  -0.025055  0  -0.105487  -0.211173  0  3.982359  0
C  C63  1  0.91151395  0.74999419  0.30071647  1  0.010015  0  -0.105113  -0.209653  0  3.98022  0
N  N64  1  0.39670493  0.73396676  0.65948333  1  -1.253119  0  -0.600381  -0.621837  0  3.339397  0
N  N65  1  0.10228069  0.77011730  0.84238649  1  -1.275864  0  -0.601535  -0.621792  0  3.337203  0
N  N66  1  0.87849911  0.14673607  0.28674489  1  -1.265872  0  -0.601147  -0.630125  0  3.386131  0
N  N67  1  0.61884845  0.35389131  0.21322602  1  -1.315463  0  -0.600613  -0.629421  0  3.394096  0
N  N68  1  0.61847249  0.14765316  0.71381746  1  -1.266075  0  -0.598807  -0.627045  0  3.385968  0
N  N69  1  0.88444609  0.35720684  0.78429701  1  -1.309886  0  -0.598248  -0.627832  0  3.39403  0
N  N70  1  0.38205258  0.85498565  0.28338468  1  -1.261363  0  -0.600381  -0.625944  0  3.385624  0
N  N71  1  0.11866809  0.64365092  0.21698495  1  -1.251247  0  -0.599646  -0.62641  0  3.38466  0
O  O72  1  0.89351790  0.87657831  0.43217646  1  -1.266092  0  -0.245953  -0.610268  0  2.343306  0
O  O73  1  0.59669611  0.87623863  0.56612342  1  -1.268041  0  -0.241007  -0.606762  0  2.380354  0
O  O74  1  0.43202845  0.09201343  0.58485893  1  -1.264501  0  -0.235974  -0.598715  0  2.378777  0
O  O75  1  0.06129778  0.09762423  0.41698636  1  -1.263372  0  -0.23933  -0.601878  0  2.382819  0
O  O76  1  0.09914606  0.12094689  0.56942426  1  -1.275017  0  -0.244316  -0.606399  0  2.348861  0
O  O77  1  0.39681246  0.12481109  0.43170471  1  -1.272793  0  -0.249165  -0.616316  0  2.34922  0
O  O78  1  0.55971133  0.90474615  0.41448939  1  -1.269259  0  -0.239649  -0.603147  0  2.372469  0
O  O79  1  0.93026561  0.90258699  0.58608281  1  -1.26625  0  -0.240177  -0.592385  0  2.343768  0
O  O80  1  0.24504446  0.92072473  0.49947473  1  -1.430324  0  -0.446575  -0.980713  0  2.173749  0
O  O81  1  0.74715554  0.07606313  0.50028898  1  -1.408871  0  -0.448436  -0.992121  0  2.19811  0
O  O82  1  0.94030811  0.59327596  0.08603071  1  -1.268727  0  -0.23949  -0.603334  0  2.372522  0
O  O83  1  0.56991213  0.59862306  0.91471600  1  -1.265066  0  -0.240524  -0.592664  0  2.344522  0
O  O84  1  0.40089831  0.37963130  0.93001290  1  -1.275324  0  -0.244778  -0.607552  0  2.350315  0
O  O85  1  0.10317246  0.37346004  0.06740283  1  -1.272974  0  -0.249954  -0.617139  0  2.347436  0
O  O86  1  0.06800514  0.40896549  0.91443097  1  -1.265389  0  -0.236401  -0.599636  0  2.375227  0
O  O87  1  0.43860373  0.40087961  0.08251827  1  -1.265328  0  -0.239478  -0.602487  0  2.384512  0
O  O88  1  0.60665743  0.62203915  0.06842421  1  -1.263883  0  -0.245963  -0.609245  0  2.342962  0
O  O89  1  0.90355309  0.62477637  0.93473873  1  -1.270402  0  -0.24089  -0.605743  0  2.380425  0
O  O90  1  0.25493879  0.57875190  0.00096824  1  -1.427384  0  -0.446887  -0.9813  0  2.175755  0
O  O91  1  0.75278514  0.42348781  0.99924216  1  -1.403728  0  -0.44876  -0.993037  0  2.199213  0
