# generated using pymatgen
data_CuH10C16(NO)4
_symmetry_space_group_name_H-M   'P 1'
_cell_length_a   4.70346776
_cell_length_b   19.67825155
_cell_length_c   19.67677740
_cell_angle_alpha   119.35797395
_cell_angle_beta   94.57597395
_cell_angle_gamma   94.57750742
_symmetry_Int_Tables_number   1
_chemical_formula_structural   CuH10C16(NO)4
_chemical_formula_sum   'Cu3 H30 C48 N12 O12'
_cell_volume   1567.36102328
_cell_formula_units_Z   3
loop_
 _symmetry_equiv_pos_site_id
 _symmetry_equiv_pos_as_xyz
  1  'x, y, z'
loop_
 _atom_site_type_symbol
 _atom_site_label
 _atom_site_symmetry_multiplicity
 _atom_site_fract_x
 _atom_site_fract_y
 _atom_site_fract_z
 _atom_site_occupancy
 _atom_site_hle17_ddec_charge
 _atom_site_hle17_ddec_spin_density
 _atom_site_hle17_ddec_sum_bond_order
 _atom_site_hle17_magmom
 _atom_site_pbe_cm5_charge
 _atom_site_pbe_ddec_charge
 _atom_site_pbe_ddec_spin_density
 _atom_site_pbe_ddec_sum_bond_order
 _atom_site_pbe_magmom
Cu  Cu0  1  0.50000217  0.00000005  0.50000017  1  0.812151  0.679303  1.816697  0.5  0.754563  0.72492  0.721299  2.266117  0.56
Cu  Cu1  1  0.50000021  0.49999999  0.00000025  1  0.813712  0.679377  1.815968  0.5  0.754782  0.724101  0.721251  2.268568  0.56
Cu  Cu2  1  0.99999812  0.50000004  0.49999982  1  0.813594  0.679422  1.816057  0.5  0.75451  0.725175  0.721372  2.266981  0.56
H  H3  1  0.61194907  0.62092035  0.18414731  1  0.115655  -6.7e-05  0.939646  0.001  0.126423  0.124723  -2.2e-05  0.998669  0.0
H  H4  1  0.99104056  0.56309218  0.37885921  1  0.115639  -6.3e-05  0.940325  0.001  0.126596  0.12474  -2.1e-05  0.999029  0.0
H  H5  1  0.42838958  0.81582057  0.43679878  1  0.115315  -6.6e-05  0.939854  0.001  0.12635  0.124579  -2.1e-05  0.99863  0.0
H  H6  1  0.38804716  0.37908015  0.81585355  1  0.115652  -6.7e-05  0.939693  0.001  0.126407  0.124697  -2.2e-05  0.998738  0.0
H  H7  1  0.00895753  0.43690773  0.62113936  1  0.115619  -6.7e-05  0.940385  0.001  0.126589  0.124728  -2.1e-05  0.999076  0.0
H  H8  1  0.57160851  0.18417934  0.56320081  1  0.115286  -6.8e-05  0.939881  0.001  0.126329  0.124544  -2.1e-05  0.998658  0.0
H  H9  1  0.97467365  0.78227683  0.31218473  1  0.109912  0.000392  0.938173  0.0  0.106697  0.117863  0.000401  0.999355  0.0
H  H10  1  0.19277280  0.52975684  0.21759372  1  0.108739  0.000392  0.938167  0.0  0.106442  0.117201  0.000401  0.999031  0.0
H  H11  1  0.66296546  0.68785103  0.47018243  1  0.109138  0.000394  0.938554  0.0  0.106443  0.117426  0.000402  0.999463  0.0
H  H12  1  0.02532530  0.21772485  0.68781676  1  0.109946  0.000394  0.938177  0.0  0.106708  0.117893  0.000401  0.999358  0.0
H  H13  1  0.80723139  0.47024248  0.78240519  1  0.108764  0.000392  0.938155  0.0  0.106443  0.117226  0.000401  0.999013  0.0
H  H14  1  0.33703688  0.31214888  0.52981724  1  0.109138  0.000393  0.938561  0.0  0.106437  0.117422  0.000402  0.999475  0.0
H  H15  1  0.59717322  0.85959531  0.20727504  1  0.105971  5.7e-05  0.940026  0.0  0.105876  0.114013  2e-06  0.998136  0.0
H  H16  1  0.73767220  0.34751899  0.14043994  1  0.105705  5.7e-05  0.9387  0.0  0.10592  0.113989  2e-06  0.996745  0.0
H  H17  1  0.39065286  0.79276193  0.65233359  1  0.106392  5.9e-05  0.938969  0.0  0.105942  0.114479  2e-06  0.997185  0.0
H  H18  1  0.40282332  0.14040578  0.79272509  1  0.105961  5.7e-05  0.940072  0.0  0.105884  0.113999  2e-06  0.998192  0.0
H  H19  1  0.26232712  0.65247916  0.85955982  1  0.105693  5.6e-05  0.938736  0.0  0.105931  0.114011  2e-06  0.996738  0.0
H  H20  1  0.60934949  0.20723798  0.34766659  1  0.106334  5.6e-05  0.939063  0.0  0.10593  0.114457  2e-06  0.997236  0.0
H  H21  1  0.43282355  0.74082209  0.07311558  1  0.124695  1.4e-05  0.929883  0.0  0.111653  0.133478  0.000107  0.982757  0.0
H  H22  1  0.69152428  0.33210361  0.25916844  1  0.124978  1.2e-05  0.929032  0.0  0.111532  0.133449  0.000108  0.982412  0.0
H  H23  1  0.36013580  0.92693678  0.66780368  1  0.124515  1.3e-05  0.928722  0.0  0.111325  0.133676  0.000108  0.981273  0.0
H  H24  1  0.56717085  0.25917900  0.92688502  1  0.124661  1.1e-05  0.929852  0.0  0.111645  0.13343  0.000107  0.982734  0.0
H  H25  1  0.30847836  0.66789690  0.74083203  1  0.125029  1.1e-05  0.929049  0.0  0.111547  0.133515  0.000108  0.982406  0.0
H  H26  1  0.63986442  0.07306314  0.33219544  1  0.124445  1e-05  0.928718  0.0  0.111295  0.133615  0.000107  0.981269  0.0
H  H27  1  0.04019153  0.59946499  0.00102559  1  0.321201  -0.000372  0.915523  0.0  0.322448  0.287395  -0.00017  0.999567  0.0
H  H28  1  0.44018188  0.40146949  0.40055164  1  0.320966  -0.000372  0.913788  0.0  0.322194  0.287  -0.000171  0.998365  0.0
H  H29  1  0.03932464  0.99903249  0.59854902  1  0.320427  -0.000371  0.915623  0.0  0.322098  0.286532  -0.000169  0.999588  0.0
H  H30  1  0.95981139  0.40053610  0.99897619  1  0.321156  -0.000372  0.915536  0.0  0.322418  0.28735  -0.00017  0.999574  0.0
H  H31  1  0.55981679  0.59853160  0.59944854  1  0.320953  -0.000373  0.913787  0.0  0.322182  0.286988  -0.000171  0.998368  0.0
H  H32  1  0.96067983  0.00096742  0.40145069  1  0.320402  -0.000371  0.915699  0.0  0.32211  0.286527  -0.000169  0.999615  0.0
C  C33  1  0.76847001  0.63767567  0.15561856  1  0.02003  -0.011488  3.654194  -0.006  0.030505  -0.031431  -0.001675  3.914316  0.001
C  C34  1  0.13057336  0.51777973  0.36216253  1  0.021055  -0.011486  3.655361  -0.006  0.030904  -0.029985  -0.001669  3.915253  0.001
C  C35  1  0.61327346  0.84440558  0.48212550  1  0.020722  -0.011479  3.654566  -0.006  0.030952  -0.030761  -0.001667  3.91496  0.001
C  C36  1  0.23152651  0.36232542  0.84438259  1  0.020002  -0.011493  3.654263  -0.006  0.030525  -0.031451  -0.001675  3.914385  0.001
C  C37  1  0.86942929  0.48222078  0.63783642  1  0.020998  -0.011474  3.655486  -0.006  0.030889  -0.030054  -0.001669  3.915365  0.001
C  C38  1  0.38672918  0.15559492  0.51787396  1  0.020854  -0.011471  3.654481  -0.006  0.031053  -0.030613  -0.001668  3.91485  0.001
C  C39  1  0.07354081  0.77176510  0.26023895  1  -0.077048  -0.006009  3.709202  -0.004  -0.075851  -0.111798  -0.000697  3.940587  0.0
C  C40  1  0.30184614  0.48828602  0.22811492  1  -0.075481  -0.005991  3.708905  -0.004  -0.075966  -0.110613  -0.000688  3.940549  0.0
C  C41  1  0.81374999  0.73980245  0.51161739  1  -0.076142  -0.006005  3.710203  -0.004  -0.075759  -0.111172  -0.000692  3.941655  0.0
C  C42  1  0.92645756  0.22823540  0.73976195  1  -0.077162  -0.006016  3.709282  -0.004  -0.075901  -0.111931  -0.000697  3.94068  0.0
C  C43  1  0.69815650  0.51171448  0.77188556  1  -0.075467  -0.005978  3.708806  -0.004  -0.075935  -0.110608  -0.000687  3.940433  0.0
C  C44  1  0.18625207  0.26019688  0.48838148  1  -0.076191  -0.006  3.710227  -0.004  -0.075772  -0.111229  -0.000692  3.941669  0.0
C  C45  1  0.11258621  0.69503381  0.11961853  1  0.19712  -0.002462  3.791102  -0.001  0.111726  0.175483  0.000602  4.022686  0.001
C  C46  1  0.41707898  0.42437095  0.30487521  1  0.198715  -0.00247  3.788875  -0.001  0.111759  0.176893  0.000597  4.021304  0.001
C  C47  1  0.99319506  0.88044769  0.57555033  1  0.196778  -0.002478  3.790466  -0.001  0.111548  0.175672  0.0006  4.021556  0.001
C  C48  1  0.88741245  0.30496728  0.88038266  1  0.197084  -0.002464  3.791019  -0.001  0.111694  0.175422  0.000602  4.022642  0.001
C  C49  1  0.58292396  0.57563014  0.69512505  1  0.198822  -0.002471  3.788843  -0.001  0.111777  0.176949  0.000597  4.021318  0.001
C  C50  1  0.00680700  0.11955163  0.42444854  1  0.196712  -0.00247  3.790509  -0.001  0.111536  0.175617  0.0006  4.021592  0.001
C  C51  1  0.42288541  0.81493605  0.19836194  1  -0.051757  -0.00477  3.74804  -0.003  -0.081929  -0.081079  -0.000433  3.98661  0.0
C  C52  1  0.60788869  0.38324983  0.18502959  1  -0.050377  -0.004775  3.745688  -0.003  -0.08164  -0.079995  -0.000433  3.984381  0.0
C  C53  1  0.22505837  0.80166793  0.61662893  1  -0.052105  -0.00478  3.747776  -0.003  -0.082195  -0.081517  -0.000434  3.986596  0.0
C  C54  1  0.57711053  0.18506387  0.80163812  1  -0.051739  -0.004778  3.748045  -0.003  -0.081938  -0.081071  -0.000433  3.986604  0.0
C  C55  1  0.39211093  0.61674890  0.81496995  1  -0.05043  -0.004765  3.745809  -0.003  -0.081695  -0.080074  -0.000433  3.984504  0.0
C  C56  1  0.77494398  0.19833198  0.38337074  1  -0.052028  -0.004771  3.7478  -0.003  -0.082167  -0.081483  -0.000434  3.986615  0.0
C  C57  1  0.98151872  0.70452697  0.18614626  1  -0.050797  0.004464  3.85277  0.005  -0.020738  -0.022873  0.002265  4.071691  0.003
C  C58  1  0.27675057  0.48140852  0.29533406  1  -0.051145  0.004464  3.852489  0.005  -0.020317  -0.023519  0.002266  4.072278  0.003
C  C59  1  0.79576696  0.81390004  0.51848264  1  -0.049898  0.004463  3.852028  0.005  -0.020051  -0.022205  0.002265  4.071083  0.003
C  C60  1  0.01847781  0.29547412  0.81385489  1  -0.050729  0.00446  3.852718  0.005  -0.02072  -0.022796  0.002265  4.071639  0.003
C  C61  1  0.72325207  0.51859198  0.70466641  1  -0.051252  0.004456  3.852481  0.005  -0.020374  -0.023585  0.002266  4.07224  0.003
C  C62  1  0.20423509  0.18609928  0.48151622  1  -0.049899  0.004457  3.852024  0.005  -0.020096  -0.022222  0.002265  4.071087  0.003
C  C63  1  0.41241089  0.89782414  0.34279007  1  0.632125  -0.008448  3.907046  -0.009  0.200886  0.565211  -0.002102  4.208823  -0.004
C  C64  1  0.51491023  0.44487595  0.10213202  1  0.632391  -0.008449  3.907369  -0.009  0.201667  0.565455  -0.002106  4.208849  -0.004
C  C65  1  0.06989735  0.65721479  0.55507596  1  0.63242  -0.008442  3.904559  -0.009  0.200411  0.565344  -0.002103  4.206366  -0.004
C  C66  1  0.58758932  0.10217577  0.65721007  1  0.632091  -0.008445  3.907137  -0.009  0.20085  0.565132  -0.002102  4.208975  -0.004
C  C67  1  0.48508300  0.55512279  0.89786690  1  0.632308  -0.008452  3.907494  -0.009  0.20166  0.565384  -0.002105  4.208989  -0.004
C  C68  1  0.93010286  0.34278512  0.44492418  1  0.632411  -0.008444  3.904555  -0.009  0.200424  0.565322  -0.002104  4.206368  -0.004
C  C69  1  0.29483043  0.82625376  0.26572292  1  -0.085093  0.010547  3.768102  0.011  -0.026964  -0.054311  0.006755  3.986963  0.008
C  C70  1  0.46875117  0.43930229  0.17367399  1  -0.086774  0.010549  3.77016  0.012  -0.027505  -0.055708  0.006758  3.98929  0.008
C  C71  1  0.02961950  0.73431147  0.56060028  1  -0.085716  0.010536  3.769536  0.011  -0.027039  -0.054825  0.006756  3.98849  0.008
C  C72  1  0.70517037  0.17374733  0.73427781  1  -0.085031  0.010547  3.767982  0.011  -0.026912  -0.054201  0.006755  3.986807  0.008
C  C73  1  0.53124905  0.56069762  0.82632564  1  -0.086739  0.010545  3.770186  0.011  -0.027521  -0.055686  0.006758  3.989329  0.008
C  C74  1  0.97038042  0.26568785  0.43939905  1  -0.085708  0.010537  3.769554  0.011  -0.027055  -0.054777  0.006756  3.988468  0.008
C  C75  1  0.33508381  0.75009350  0.12480936  1  -0.157158  0.003982  3.747984  0.004  -0.091871  -0.170057  0.00124  3.990636  0.002
C  C76  1  0.58460894  0.37451497  0.24986347  1  -0.158744  0.003986  3.747144  0.004  -0.091969  -0.171217  0.001239  3.990164  0.002
C  C77  1  0.21065589  0.87524156  0.62538446  1  -0.157328  0.003987  3.746552  0.004  -0.091575  -0.170812  0.001239  3.989195  0.002
C  C78  1  0.66491029  0.24990701  0.87519146  1  -0.157086  0.00399  3.747803  0.004  -0.091833  -0.169963  0.001241  3.990455  0.002
C  C79  1  0.41539399  0.62548612  0.75013730  1  -0.158791  0.003983  3.747148  0.004  -0.091949  -0.171262  0.001239  3.990173  0.002
C  C80  1  0.78934462  0.12475894  0.37461546  1  -0.157226  0.003986  3.746449  0.004  -0.091543  -0.170726  0.001239  3.989116  0.002
N  N81  1  0.97822370  0.62714686  0.05658250  1  -0.218163  0.00299  3.406863  0.004  -0.280394  -0.154418  0.001932  3.638896  0.002
N  N82  1  0.35048257  0.42926803  0.37278138  1  -0.217162  0.002986  3.402436  0.004  -0.279917  -0.153443  0.001929  3.635501  0.002
N  N83  1  0.92172128  0.94348307  0.57070670  1  -0.218365  0.002996  3.405122  0.004  -0.280773  -0.154375  0.001936  3.63745  0.002
N  N84  1  0.02177893  0.37285365  0.94341849  1  -0.21815  0.002989  3.406928  0.004  -0.2804  -0.154409  0.001932  3.638947  0.002
N  N85  1  0.64952006  0.57073247  0.62721909  1  -0.217177  0.002986  3.402485  0.004  -0.279917  -0.153452  0.001929  3.635567  0.002
N  N86  1  0.07828291  0.05651625  0.42929221  1  -0.218392  0.002992  3.405216  0.004  -0.280791  -0.15441  0.001936  3.637556  0.002
N  N87  1  0.77206704  0.59238729  0.07829555  1  -0.181285  0.063727  3.274107  0.081  -0.264999  -0.144576  0.050688  3.590195  0.066
N  N88  1  0.17928224  0.48578582  0.40750707  1  -0.182891  0.063727  3.274408  0.081  -0.265568  -0.146892  0.050671  3.591463  0.066
N  N89  1  0.69399193  0.92173896  0.51417072  1  -0.1801  0.063761  3.272829  0.081  -0.26431  -0.144586  0.050717  3.589663  0.066
N  N90  1  0.22793346  0.40761321  0.92170539  1  -0.181243  0.063741  3.274201  0.081  -0.264961  -0.14449  0.050689  3.590238  0.066
N  N91  1  0.82071827  0.51421468  0.59249235  1  -0.182825  0.063731  3.274501  0.081  -0.265565  -0.14684  0.050673  3.59156  0.066
N  N92  1  0.30601041  0.07826095  0.48582895  1  -0.180116  0.063764  3.272786  0.081  -0.264334  -0.144617  0.050719  3.589624  0.066
O  O93  1  0.27627839  0.91141045  0.40222650  1  -0.591396  0.108107  2.036299  0.147  -0.330751  -0.540359  0.080419  2.325879  0.114
O  O94  1  0.36494491  0.49067400  0.08852125  1  -0.590958  0.108264  2.036136  0.147  -0.330117  -0.539517  0.080597  2.325943  0.114
O  O95  1  0.87422114  0.59780723  0.50919338  1  -0.591924  0.108143  2.034967  0.147  -0.329828  -0.540321  0.080488  2.324362  0.114
O  O96  1  0.72372240  0.08859064  0.59777473  1  -0.591427  0.108105  2.036404  0.147  -0.330736  -0.540352  0.080418  2.325977  0.114
O  O97  1  0.63505074  0.50932533  0.91147851  1  -0.590919  0.10827  2.036143  0.147  -0.330131  -0.539472  0.080595  2.325932  0.114
O  O98  1  0.12577937  0.40219327  0.49080705  1  -0.591919  0.108145  2.034927  0.147  -0.329834  -0.540318  0.080489  2.324324  0.114
O  O99  1  0.63435605  0.94050877  0.34710970  1  -0.620767  -0.000429  1.976815  0.002  -0.320425  -0.569677  -6.1e-05  2.223928  0.002
O  O100  1  0.69447029  0.40664122  0.05951508  1  -0.621109  -0.000438  1.976615  0.002  -0.321263  -0.570122  -6.5e-05  2.224087  0.002
O  O101  1  0.28739098  0.65282947  0.59343508  1  -0.62063  -0.000423  1.975351  0.002  -0.320496  -0.56953  -5.4e-05  2.222856  0.002
O  O102  1  0.36564843  0.05949114  0.65289002  1  -0.620757  -0.00043  1.976892  0.002  -0.320411  -0.569646  -6.1e-05  2.224027  0.002
O  O103  1  0.30552052  0.59335693  0.94048248  1  -0.621057  -0.000438  1.976718  0.002  -0.321217  -0.570075  -6.6e-05  2.224193  0.002
O  O104  1  0.71260893  0.34716985  0.40656527  1  -0.620611  -0.000424  1.975372  0.002  -0.320493  -0.569522  -5.4e-05  2.222903  0.002
