# generated using pymatgen
data_Al4H36C68S6O47
_symmetry_space_group_name_H-M   'P 1'
_cell_length_a   6.69539643
_cell_length_b   19.99914602
_cell_length_c   23.75043420
_cell_angle_alpha   90.10978533
_cell_angle_beta   92.77434349
_cell_angle_gamma   90.66898556
_symmetry_Int_Tables_number   1
_chemical_formula_structural   Al4H36C68S6O47
_chemical_formula_sum   'Al4 H36 C68 S6 O47'
_cell_volume   3176.28180580
_cell_formula_units_Z   1
loop_
 _symmetry_equiv_pos_site_id
 _symmetry_equiv_pos_as_xyz
  1  'x, y, z'
loop_
 _atom_site_type_symbol
 _atom_site_label
 _atom_site_symmetry_multiplicity
 _atom_site_fract_x
 _atom_site_fract_y
 _atom_site_fract_z
 _atom_site_occupancy
 _atom_site_pbe_bader_charge
 _atom_site_pbe_bader_spin_density
 _atom_site_pbe_cm5_charge
 _atom_site_pbe_ddec_charge
 _atom_site_pbe_ddec_spin_density
 _atom_site_pbe_ddec_sum_bond_order
 _atom_site_pbe_magmom
Al  Al0  1  0.05529358  0.49985709  0.49819442  1  2.500203  0  0.397581  1.638111  0  2.585775  0
Al  Al1  1  0.55584262  0.49827688  0.49989569  1  2.502857  0  0.400593  1.638366  0  2.57283  0
Al  Al2  1  0.75490719  0.00284486  0.00614159  1  2.499672  0  0.405026  1.633285  0  2.571417  0
Al  Al3  1  0.25479730  0.00263490  0.00224926  1  2.50277  0  0.40485  1.640574  0  2.572767  0
H  H4  1  0.95643008  0.37354030  0.35439658  1  0.115858  0  0.107304  0.107383  0  1.059773  0
H  H5  1  0.58765296  0.28274256  0.47389272  1  0.137698  0  0.118649  0.128789  0  0.988396  0
H  H6  1  0.65149462  0.11562695  0.32718001  1  0.141139  0  0.10818  0.122722  0  1.010585  0
H  H7  1  0.78884902  0.11890649  0.23518795  1  0.094985  0  0.106272  0.11569  0  1.040174  0
H  H8  1  0.09916478  0.84089160  0.29724792  1  0.149395  0  0.131795  0.151332  0  0.934376  0
H  H9  1  0.61192318  0.79144455  0.19884387  1  0.12534  0  0.119158  0.140818  0  0.955177  0
H  H10  1  0.22402389  0.33764839  0.78004876  1  0.100605  0  0.113556  0.117999  0  0.969978  0
H  H11  1  0.09692257  0.20319853  0.78486707  1  0.148853  0  0.118256  0.143694  0  0.965873  0
H  H12  1  0.72806107  0.28112722  0.70879749  1  0.104734  0  0.120314  0.128554  0  0.956703  0
H  H13  1  0.50739786  0.61396583  0.84149419  1  0.112676  0  0.105555  0.113269  0  0.996386  0
H  H14  1  0.44628943  0.62084694  0.65733846  1  0.05497  0  0.103898  0.105107  0  1.016854  0
H  H15  1  0.19780664  0.72453286  0.51259203  1  0.084186  0  0.111847  0.118115  0  0.979358  0
H  H16  1  0.20841894  0.88664101  0.66019081  1  0.045559  0  0.10835  0.110833  0  0.984  0
H  H17  1  0.48584812  0.77253466  0.99087035  1  0.020419  0  0.103239  0.118474  0  1.001135  0
H  H18  1  0.47803102  0.61774085  0.73861138  1  0.087397  0  0.100309  0.099249  0  1.018951  0
H  H19  1  0.28479042  0.88642807  0.76073304  1  0.041439  0  0.107271  0.106435  0  1.027376  0
H  H20  1  0.18342259  0.82937375  0.56896179  1  0.060971  0  0.109335  0.10951  0  0.986203  0
H  H21  1  0.46968017  0.36359634  0.23892255  1  0.650456  0  0.313912  0.355054  0  0.979917  0
H  H22  1  0.25933630  0.24156875  0.42574241  1  0.652881  0  0.329187  0.396059  0  0.89338  0
H  H23  1  0.20340656  0.65124999  0.18039293  1  0.656799  0  0.331902  0.384208  0  0.885428  0
H  H24  1  0.89001585  0.65988422  0.11773077  1  0.661795  0  0.342209  0.395473  0  0.864402  0
H  H25  1  0.45276971  0.66521678  0.24186695  1  0.659602  0  0.313339  0.353972  0  0.99431  0
H  H26  1  0.57858247  0.78536063  0.33922263  1  0.664528  0  0.31317  0.365579  0  0.943123  0
H  H27  1  0.77983979  0.40303227  0.79669446  1  0.637536  0  0.357183  0.405039  0  0.836065  0
H  H28  1  0.07100791  0.15629693  0.67515375  1  0.67746  0  0.31619  0.388104  0  0.932249  0
H  H29  1  0.43959938  0.13163496  0.62852519  1  0.673331  0  0.344379  0.406425  0  0.855775  0
H  H30  1  0.51391690  0.65907598  0.97728464  1  0.577903  0  0.334856  0.363493  0  0.878923  0
H  H31  1  0.51638708  0.90515644  0.79919217  1  0.62084  0  0.328588  0.364494  0  0.898658  0
H  H32  1  0.41549369  0.29914509  0.06556197  1  0.628582  0  0.333825  0.369145  0  0.887126  0
H  H33  1  0.30048211  0.16451193  0.02105864  1  0.66527  0  0.324578  0.375814  0  0.925599  0
H  H34  1  0.76844248  0.10360535  0.11527955  1  0.651174  0  0.317383  0.359426  0  0.950642  0
H  H35  1  0.27295870  0.45785627  0.30929758  1  0.645284  0  0.359906  0.414376  0  0.819568  0
H  H36  1  0.29210684  0.46770534  0.42923274  1  0.644942  0  0.341397  0.424774  0  0.875613  0
H  H37  1  0.81996534  0.54563323  0.56084341  1  0.616079  0  0.350757  0.42872  0  0.856904  0
H  H38  1  0.50568667  0.99070935  0.07714570  1  0.624163  0  0.349829  0.430247  0  0.85716  0
H  H39  1  0.98207597  0.96024211  0.94007710  1  0.633679  0  0.3606  0.444463  0  0.831767  0
C  C40  1  0.30531938  0.42406540  0.57754553  1  1.677527  0  0.274331  0.708514  0  4.178428  0
C  C41  1  0.32565716  0.60303206  0.55039320  1  1.563826  0  0.280158  0.667125  0  4.068223  0
C  C42  1  0.79769267  0.57135036  0.41813028  1  1.704541  0  0.27678  0.70347  0  4.173067  0
C  C43  1  0.78848584  0.39610995  0.44926685  1  1.564537  0  0.277297  0.659664  0  4.070157  0
C  C44  1  0.06068436  0.16335011  0.09579379  1  0.009151  0  -0.047632  -0.308325  0  4.048686  0
C  C45  1  0.78769067  0.33183592  0.41829333  1  0.112277  0  -0.019293  -0.042836  0  4.00171  0
C  C46  1  0.24865871  0.26524055  0.12065423  1  0.567457  0  0.072754  0.167497  0  4.047324  0
C  C47  1  0.21107458  0.21089934  0.08468232  1  0.539424  0  0.072233  0.189415  0  4.130324  0
C  C48  1  0.95030766  0.16980359  0.14492985  1  0.537532  0  0.099173  0.28299  0  4.008057  0
C  C49  1  0.01392159  0.21624942  0.18803920  1  0.052097  0  -0.013144  -0.069318  0  3.93313  0
C  C50  1  0.16252683  0.26539662  0.17423638  1  0.007263  0  -0.010776  -0.089147  0  3.942539  0
C  C51  1  0.93795949  0.21529342  0.24438259  1  -8.8e-05  0  -0.002211  0.05229  0  3.938864  0
C  C52  1  0.99396963  0.26577219  0.28447114  1  0.011412  0  0.000437  0.050458  0  3.924602  0
C  C53  1  0.16054673  0.30987777  0.27180932  1  -0.162973  0  -0.049438  -0.337862  0  3.945251  0
C  C54  1  0.24006250  0.31012818  0.21799524  1  0.620108  0  0.110596  0.316436  0  4.028847  0
C  C55  1  0.81662323  0.16121353  0.26309198  1  -0.043013  0  -0.088931  -0.10907  0  3.975772  0
C  C56  1  0.73735357  0.15923940  0.31506625  1  -0.011329  0  -0.092026  -0.12936  0  4.001322  0
C  C57  1  0.75661937  0.21518785  0.35169325  1  -0.03282  0  0.003247  0.083672  0  3.974219  0
C  C58  1  0.88467615  0.26954100  0.33563359  1  0.072078  0  -0.007567  0.021795  0  3.938598  0
C  C59  1  0.65099956  0.22163649  0.40228700  1  -0.19626  0  -0.017725  -0.14893  0  3.938328  0
C  C60  1  0.67081943  0.27786251  0.43592024  1  -0.031693  0  -0.07568  -0.092943  0  3.992948  0
C  C61  1  0.88740646  0.32791745  0.36886048  1  -0.068645  0  -0.080472  -0.107178  0  3.957117  0
C  C62  1  0.81046338  0.69778098  0.22398234  1  -0.154197  0  -0.019515  -0.215682  0  3.759474  0
C  C63  1  0.03179800  0.71970296  0.21217248  1  0.611535  0  0.098388  0.263074  0  3.748561  0
C  C64  1  0.02512745  0.88308809  0.13124600  1  0.161104  0  -0.036604  -0.192152  0  3.955098  0
C  C65  1  0.79204813  0.61692445  0.37084245  1  -0.09542  0  -0.015602  -0.12528  0  3.892228  0
C  C66  1  0.74406899  0.77240069  0.22193811  1  -0.047288  0  -0.070912  -0.144172  0  3.595173  0
C  C67  1  0.96561325  0.79491164  0.21052061  1  0.094655  0  0.009452  0.084142  0  3.805616  0
C  C68  1  0.79578883  0.77882074  0.28772161  1  0.693857  0  0.101543  0.29901  0  3.748367  0
C  C69  1  0.85977110  0.70141247  0.28966825  1  0.071074  0  0.00977  0.068969  0  3.829917  0
C  C70  1  0.01563548  0.79998949  0.27622507  1  -0.036193  0  -0.054848  -0.118356  0  3.554584  0
C  C71  1  0.07898013  0.72511522  0.27786600  1  -0.133605  0  -0.007576  -0.18157  0  3.690089  0
C  C72  1  0.01134854  0.84214937  0.16870697  1  -0.395267  0  -0.02542  -0.016551  0  4.058628  0
C  C73  1  0.81395973  0.65458823  0.33149676  1  -0.090489  0  -0.047663  -0.06777  0  4.119314  0
C  C74  1  0.52097975  0.27526235  0.78682013  1  -0.108275  0  0.002381  -0.114471  0  3.666456  0
C  C75  1  0.30630063  0.29508390  0.76474237  1  0.00954  0  -0.057663  -0.056224  0  3.604332  0
C  C76  1  0.31787079  0.37374772  0.62096723  1  0.199445  0  -0.031305  -0.171893  0  3.956162  0
C  C77  1  0.50230897  0.11852138  0.87727251  1  0.246578  0  -0.017732  -0.153808  0  3.918811  0
C  C78  1  0.58694140  0.26424818  0.72547729  1  -0.024039  0  -0.061217  -0.080071  0  3.64583  0
C  C79  1  0.37281726  0.28592646  0.70208732  1  0.08428  0  0.006794  0.06376  0  3.794754  0
C  C80  1  0.51732792  0.19002839  0.72843478  1  -0.126526  0  -0.00781  -0.2014  0  3.678333  0
C  C81  1  0.44993159  0.19921689  0.79098069  1  0.130682  0  0.031134  0.152729  0  3.769123  0
C  C82  1  0.29891678  0.20935673  0.70542578  1  0.635934  0  0.101671  0.277335  0  3.735537  0
C  C83  1  0.23543887  0.22072521  0.76717727  1  -0.028869  0  -0.064733  -0.138578  0  3.570683  0
C  C84  1  0.33761358  0.33215775  0.65806716  1  -0.435462  0  -0.035219  -0.04167  0  4.096067  0
C  C85  1  0.48575187  0.15573400  0.83700369  1  -0.468291  0  -0.017566  -0.026034  0  4.049357  0
C  C86  1  0.48083956  0.83718810  0.91785477  1  0.030723  0  -0.030081  -0.125676  0  4.019391  0
C  C87  1  0.32419736  0.66706739  0.58289068  1  0.007446  0  -0.010239  -0.023494  0  4.001188  0
C  C88  1  0.48572461  0.71707961  0.91285548  1  0.492936  0  0.068784  0.246771  0  4.110734  0
C  C89  1  0.48170927  0.77476635  0.94486977  1  0.006126  0  -0.117307  -0.261591  0  4.070674  0
C  C90  1  0.47108853  0.84234402  0.85943279  1  0.446862  0  0.075894  0.22272  0  4.049316  0
C  C91  1  0.44853286  0.78374698  0.82538427  1  0.018232  0  -0.012889  -0.075552  0  3.964566  0
C  C92  1  0.47229842  0.72046753  0.85303118  1  0.049695  0  -0.015371  -0.004217  0  3.996242  0
C  C93  1  0.40186075  0.78449372  0.76505720  1  -0.019361  0  -0.006237  0.044274  0  3.964847  0
C  C94  1  0.41772646  0.72450765  0.73334376  1  -0.00426  0  -0.003812  0.033918  0  3.950576  0
C  C95  1  0.46518270  0.66394396  0.76237357  1  -0.131678  0  -0.094512  -0.135138  0  4.031815  0
C  C96  1  0.48310409  0.66138898  0.81992560  1  -0.00323  0  -0.092016  -0.111127  0  4.011623  0
C  C97  1  0.32287800  0.84238917  0.73667452  1  -0.101138  0  -0.103638  -0.168962  0  4.050454  0
C  C98  1  0.27325226  0.84220706  0.68004407  1  0.048355  0  -0.087385  -0.118742  0  4.019242  0
C  C99  1  0.29702334  0.78411425  0.64655892  1  -0.068735  0  -0.006853  0.074962  0  4.02032  0
C  C100  1  0.37071062  0.72464923  0.67318551  1  -0.004954  0  -1.4e-05  0.043137  0  3.946642  0
C  C101  1  0.23911925  0.78338265  0.58838815  1  0.026098  0  -0.08186  -0.122464  0  3.991599  0
C  C102  1  0.24786698  0.72555207  0.55697078  1  -0.016073  0  -0.083205  -0.103184  0  3.997211  0
C  C103  1  0.38726685  0.66698768  0.63925251  1  -0.074717  0  -0.086837  -0.159984  0  3.961903  0
C  C104  1  0.48691350  0.89994682  0.95207121  1  1.598396  0  0.281696  0.702263  0  4.03881  0
C  C105  1  0.51023330  0.07500267  0.92534156  1  1.68317  0  0.285217  0.71896  0  4.149424  0
C  C106  1  0.03107007  0.10600021  0.05796882  1  1.516882  0  0.267475  0.661341  0  4.060027  0
C  C107  1  0.01369425  0.93085611  0.08588851  1  1.680658  0  0.276313  0.72173  0  4.151842  0
S  S108  1  0.46844986  0.16140742  0.42322296  1  3.072794  0  0.535503  1.164537  0  5.988703  0
S  S109  1  0.72365589  0.62688109  0.18618323  1  3.013866  0  0.550532  1.172517  0  5.94621  0
S  S110  1  0.28733107  0.69063739  0.31477103  1  3.106532  0  0.549503  1.172848  0  6.003412  0
S  S111  1  0.66852845  0.31700013  0.83957781  1  3.062224  0  0.538808  1.146671  0  6.025935  0
S  S112  1  0.63964703  0.12092638  0.70055737  1  3.082887  0  0.548483  1.177649  0  6.023372  0
S  S113  1  0.30569436  0.35194381  0.32552147  1  2.951177  0  0.558853  1.172133  0  5.884113  0
O  O114  1  0.49218660  0.58217305  0.53432160  1  -1.250474  0  -0.230736  -0.587025  0  2.307772  0
O  O115  1  0.13218584  0.43608894  0.55594495  1  -1.222323  0  -0.224893  -0.568925  0  2.280895  0
O  O116  1  0.95145207  0.42979791  0.45150224  1  -1.269673  0  -0.232604  -0.595512  0  2.354221  0
O  O117  1  0.15676492  0.57375884  0.54254731  1  -1.254165  0  -0.229684  -0.594237  0  2.327261  0
O  O118  1  0.97188867  0.56338670  0.44055636  1  -1.213399  0  -0.220787  -0.561803  0  2.284625  0
O  O119  1  0.47034275  0.45196717  0.56608584  1  -1.235179  0  -0.230393  -0.583667  0  2.289517  0
O  O120  1  0.30068803  0.49049434  0.46542869  1  -1.446772  0  -0.448593  -0.991296  0  2.183944  0
O  O121  1  0.63414107  0.54436842  0.43161233  1  -1.231273  0  -0.228508  -0.580329  0  2.286086  0
O  O122  1  0.62573307  0.41381546  0.47032904  1  -1.259861  0  -0.230885  -0.58392  0  2.32161  0
O  O123  1  0.81236337  0.51001045  0.53300136  1  -1.419274  0  -0.447933  -0.987746  0  2.173436  0
O  O124  1  0.34549068  0.04743868  0.93759701  1  -1.234556  0  -0.221625  -0.578738  0  2.288942  0
O  O125  1  0.65426361  0.93019042  0.95949619  1  -1.26302  0  -0.231025  -0.605654  0  2.329297  0
O  O126  1  0.83758554  0.94047096  0.06475431  1  -1.226231  0  -0.229724  -0.586238  0  2.276733  0
O  O127  1  0.67914906  0.06800759  0.95150126  1  -1.229864  0  -0.222382  -0.569262  0  2.27047  0
O  O128  1  0.86465033  0.07307753  0.05642492  1  -1.251086  0  -0.226502  -0.581298  0  2.357896  0
O  O129  1  0.32133637  0.91818290  0.97121630  1  -1.262019  0  -0.236701  -0.606017  0  2.297796  0
O  O130  1  0.50870348  0.01137876  0.04019656  1  -1.429519  0  -0.450757  -0.99161  0  2.147357  0
O  O131  1  0.17906227  0.08944658  0.02849293  1  -1.266638  0  -0.229334  -0.585598  0  2.361904  0
O  O132  1  0.17538313  0.95895743  0.07166018  1  -1.24256  0  -0.232283  -0.594986  0  2.280178  0
O  O133  1  0.99665824  0.99157644  0.97132261  1  -1.431982  0  -0.445758  -0.986879  0  2.16087  0
O  O134  1  0.39623854  0.34790713  0.20382246  1  -1.138895  0  -0.335747  -0.408947  0  2.349265  0
O  O135  1  0.37009415  0.13197683  0.37365075  1  -1.298713  0  -0.320973  -0.545974  0  2.128766  0
O  O136  1  0.55127032  0.12007205  0.46767880  1  -1.286665  0  -0.32553  -0.526163  0  2.074663  0
O  O137  1  0.31131059  0.20827109  0.45328640  1  -1.213547  0  -0.365549  -0.532811  0  2.151128  0
O  O138  1  0.14100153  0.69374795  0.16963229  1  -1.173698  0  -0.358908  -0.483352  0  2.280921  0
O  O139  1  0.85834793  0.57326327  0.19920977  1  -1.257695  0  -0.290883  -0.494199  0  2.088721  0
O  O140  1  0.50926567  0.61610804  0.19054222  1  -1.280493  0  -0.299529  -0.524758  0  2.185837  0
O  O141  1  0.74556338  0.65176710  0.12266985  1  -1.20914  0  -0.348185  -0.505815  0  2.121129  0
O  O142  1  0.34815823  0.73324795  0.36168643  1  -1.287886  0  -0.287418  -0.505827  0  2.12049  0
O  O143  1  0.25597616  0.62000753  0.32071889  1  -1.256833  0  -0.288657  -0.495096  0  2.124749  0
O  O144  1  0.44711513  0.70409916  0.26875001  1  -1.267347  0  -0.354192  -0.556956  0  2.422029  0
O  O145  1  0.69508064  0.81148383  0.32739435  1  -1.178944  0  -0.36538  -0.459157  0  2.243493  0
O  O146  1  0.56513046  0.31650125  0.89088203  1  -1.271159  0  -0.295516  -0.486886  0  2.088738  0
O  O147  1  0.87254601  0.29516040  0.83668817  1  -1.293635  0  -0.310786  -0.546105  0  2.135759  0
O  O148  1  0.65687028  0.39315005  0.81590609  1  -1.179992  0  -0.361033  -0.531256  0  2.102987  0
O  O149  1  0.20006292  0.17459903  0.66271161  1  -1.195198  0  -0.359869  -0.492738  0  2.273964  0
O  O150  1  0.85444558  0.12971326  0.70706389  1  -1.298297  0  -0.303946  -0.548626  0  2.204398  0
O  O151  1  0.54775159  0.06089363  0.72057475  1  -1.280012  0  -0.304162  -0.517787  0  2.097386  0
O  O152  1  0.58745159  0.13218531  0.63518165  1  -1.215169  0  -0.338404  -0.495941  0  2.134781  0
O  O153  1  0.50048081  0.65439535  0.93648158  1  -1.094249  0  -0.359685  -0.453353  0  2.264404  0
O  O154  1  0.48366157  0.90637984  0.83873524  1  -1.131688  0  -0.356458  -0.444747  0  2.285139  0
O  O155  1  0.37468765  0.31379390  0.10271908  1  -1.104423  0  -0.344091  -0.405837  0  2.292646  0
O  O156  1  0.31967614  0.20985031  0.03779327  1  -1.17029  0  -0.350375  -0.44488  0  2.290632  0
O  O157  1  0.78741028  0.13009056  0.15077244  1  -1.1447  0  -0.336432  -0.423037  0  2.320339  0
O  O158  1  0.28865010  0.31962917  0.37885188  1  -1.297037  0  -0.268278  -0.498509  0  2.293915  0
O  O159  1  0.50493979  0.36577092  0.30596428  1  -1.286422  0  -0.295349  -0.534977  0  2.227547  0
O  O160  1  0.21214195  0.42596549  0.33488821  1  -1.180118  0  -0.344748  -0.526694  0  2.163101  0
