# generated using pymatgen
data_ZnH10(C5N3)2
_symmetry_space_group_name_H-M   'P 1'
_cell_length_a   16.77078375
_cell_length_b   16.37239938
_cell_length_c   18.47894926
_cell_angle_alpha   90.00178965
_cell_angle_beta   89.99928925
_cell_angle_gamma   89.73368034
_symmetry_Int_Tables_number   1
_chemical_formula_structural   ZnH10(C5N3)2
_chemical_formula_sum   'Zn8 H80 C80 N48'
_cell_volume   5073.85755328
_cell_formula_units_Z   8
loop_
 _symmetry_equiv_pos_site_id
 _symmetry_equiv_pos_as_xyz
  1  'x, y, z'
loop_
 _atom_site_type_symbol
 _atom_site_label
 _atom_site_symmetry_multiplicity
 _atom_site_fract_x
 _atom_site_fract_y
 _atom_site_fract_z
 _atom_site_occupancy
 _atom_site_pbe_bader_charge
 _atom_site_pbe_bader_spin_density
 _atom_site_pbe_cm5_charge
 _atom_site_pbe_ddec_charge
 _atom_site_pbe_ddec_spin_density
 _atom_site_pbe_ddec_sum_bond_order
 _atom_site_pbe_magmom
Zn  Zn0  1  0.50263878  0.35573093  0.99906960  1  1.190654  0  0.74094  0.653229  0  2.382602  0
Zn  Zn1  1  0.36687098  0.49866007  0.99547173  1  1.172705  0  0.734438  0.609454  0  2.518997  0
Zn  Zn2  1  0.49734888  0.64427131  0.99907254  1  1.19056  0  0.741077  0.653424  0  2.382426  0
Zn  Zn3  1  0.63311561  0.50134073  0.99546708  1  1.172849  0  0.734431  0.609531  0  2.51876  0
Zn  Zn4  1  0.99731060  0.85614327  0.48182041  1  1.189237  0  0.740099  0.65048  0  2.383696  0
Zn  Zn5  1  0.86661703  0.00203268  0.48143080  1  1.177084  0  0.737559  0.614779  0  2.518204  0
Zn  Zn6  1  0.00269828  0.14386331  0.48182947  1  1.189258  0  0.740181  0.650578  0  2.383478  0
Zn  Zn7  1  0.13339186  0.99797570  0.48141817  1  1.176875  0  0.737695  0.615069  0  2.518247  0
H  H8  1  0.29609161  0.52759296  0.29899754  1  0.023493  0  0.088986  0.087353  0  1.007147  0
H  H9  1  0.22272328  0.38209589  0.60432192  1  0.02214  0  0.090226  0.087574  0  1.002309  0
H  H10  1  0.22098051  0.95181790  0.77043788  1  0.040175  0  0.091611  0.091526  0  1.00299  0
H  H11  1  0.77729281  0.61789775  0.60432998  1  0.021938  0  0.090223  0.087435  0  1.002242  0
H  H12  1  0.79920034  0.97005034  0.17844923  1  0.042803  0  0.08825  0.085803  0  1.007964  0
H  H13  1  0.22967042  0.60060529  0.39388890  1  0.036735  0  0.091526  0.088389  0  0.999444  0
H  H14  1  0.20078607  0.02996399  0.17843888  1  0.043526  0  0.08827  0.085869  0  1.007742  0
H  H15  1  0.77033436  0.39939182  0.39387868  1  0.036339  0  0.091587  0.088434  0  0.999325  0
H  H16  1  0.41391388  0.67073242  0.29143479  1  0.009467  0  0.091856  0.0859  0  1.013472  0
H  H17  1  0.83454128  0.74849419  0.12713316  1  0.013437  0  0.089404  0.080615  0  1.024896  0
H  H18  1  0.58609680  0.32926171  0.29141205  1  0.010237  0  0.091845  0.085933  0  1.013499  0
H  H19  1  0.73120269  0.89653376  0.08530974  1  0.033141  0  0.091179  0.088362  0  1.000425  0
H  H20  1  0.16543669  0.25153299  0.12713061  1  0.013426  0  0.089535  0.080705  0  1.024948  0
H  H21  1  0.39968878  0.30390936  0.71302954  1  0.039564  0  0.092718  0.085388  0  1.013478  0
H  H22  1  0.82134051  0.26348563  0.83421601  1  0.011708  0  0.089942  0.082893  0  1.022879  0
H  H23  1  0.60031880  0.69609007  0.71303570  1  0.039641  0  0.092637  0.085284  0  1.013541  0
H  H24  1  0.17864994  0.73648735  0.83421204  1  0.011531  0  0.090073  0.083001  0  1.023064  0
H  H25  1  0.90186961  0.18692868  0.77090168  1  0.016736  0  0.091801  0.084573  0  1.014839  0
H  H26  1  0.31980171  0.22998627  0.64729255  1  0.027371  0  0.09182  0.088642  0  1.014439  0
H  H27  1  0.09813363  0.81306622  0.77088173  1  0.016233  0  0.091899  0.084607  0  1.014698  0
H  H28  1  0.68020452  0.77001417  0.64729606  1  0.027447  0  0.091822  0.088626  0  1.014576  0
H  H29  1  0.91373239  0.82330443  0.18974984  1  0.046199  0  0.092207  0.086139  0  1.012671  0
H  H30  1  0.70391883  0.47239794  0.29898869  1  0.023986  0  0.089017  0.087455  0  1.007235  0
H  H31  1  0.33361054  0.74734313  0.35243784  1  0.022461  0  0.088203  0.079272  0  1.030309  0
H  H32  1  0.08624293  0.17670507  0.18975752  1  0.045611  0  0.092088  0.086061  0  1.012826  0
H  H33  1  0.66641541  0.25263628  0.35241864  1  0.021447  0  0.088163  0.079218  0  1.030336  0
H  H34  1  0.52423255  0.28884023  0.76626770  1  0.418799  0  0.306491  0.302128  0  0.94022  0
H  H35  1  0.56605880  0.29186558  0.84902849  1  0.453665  0  0.288653  0.28295  0  1.014727  0
H  H36  1  0.16758994  0.60674503  0.86990879  1  0.430878  0  0.306868  0.303707  0  0.945023  0
H  H37  1  0.21321329  0.52794276  0.91194882  1  0.454048  0  0.300993  0.293355  0  0.965448  0
H  H38  1  0.47576664  0.71116173  0.76627275  1  0.41881  0  0.306471  0.30207  0  0.940254  0
H  H39  1  0.43393520  0.70813026  0.84903111  1  0.454134  0  0.288698  0.28298  0  1.014523  0
H  H40  1  0.83239333  0.39322700  0.86991185  1  0.431455  0  0.306848  0.30361  0  0.94505  0
H  H41  1  0.26878388  0.10349035  0.08531345  1  0.032786  0  0.091302  0.088467  0  1.000506  0
H  H42  1  0.78677092  0.47203052  0.91195397  1  0.454565  0  0.301063  0.293514  0  0.965167  0
H  H43  1  0.54593307  0.67245641  0.23512407  1  0.442468  0  0.308173  0.305337  0  0.935307  0
H  H44  1  0.57317539  0.68664666  0.14814199  1  0.448704  0  0.292857  0.289192  0  1.000673  0
H  H45  1  0.14650462  0.37424865  0.07372440  1  0.411249  0  0.306197  0.302794  0  0.947657  0
H  H46  1  0.20124675  0.45956600  0.06552751  1  0.443249  0  0.302737  0.295481  0  0.953912  0
H  H47  1  0.45406998  0.32753928  0.23511951  1  0.442572  0  0.308169  0.305399  0  0.935283  0
H  H48  1  0.42681923  0.31336406  0.14813769  1  0.448045  0  0.292991  0.289282  0  1.000516  0
H  H49  1  0.85348414  0.62577477  0.07371781  1  0.411957  0  0.306175  0.302587  0  0.947774  0
H  H50  1  0.79874468  0.54045633  0.06552578  1  0.443579  0  0.302841  0.295632  0  0.954039  0
H  H51  1  0.04494387  0.81850102  0.24633121  1  0.440564  0  0.308444  0.305938  0  0.93454  0
H  H52  1  0.28686565  0.45175714  0.70170621  1  0.039354  0  0.088891  0.087242  0  1.00616  0
H  H53  1  0.07242643  0.80676655  0.33359215  1  0.451495  0  0.292805  0.288345  0  1.002801  0
H  H54  1  0.64654220  0.13082626  0.40935471  1  0.445675  0  0.302498  0.299163  0  0.947745  0
H  H55  1  0.70411094  0.05073151  0.38940098  1  0.409086  0  0.298403  0.288538  0  0.959017  0
H  H56  1  0.95503730  0.18150265  0.24634438  1  0.440878  0  0.308419  0.305883  0  0.934616  0
H  H57  1  0.92755770  0.19323983  0.33360797  1  0.450962  0  0.292682  0.288313  0  1.002942  0
H  H58  1  0.35347639  0.86916504  0.40936485  1  0.445507  0  0.302451  0.299094  0  0.947722  0
H  H59  1  0.29591490  0.94925741  0.38939639  1  0.409488  0  0.298438  0.288553  0  0.959153  0
H  H60  1  0.02928891  0.19642667  0.71808294  1  0.441754  0  0.30744  0.303648  0  0.937969  0
H  H61  1  0.06999279  0.19689118  0.63489705  1  0.449227  0  0.290382  0.286471  0  1.004268  0
H  H62  1  0.69917581  0.96719948  0.53698501  1  0.435084  0  0.295417  0.286457  0  0.979137  0
H  H63  1  0.71511365  0.11652996  0.86920079  1  0.017393  0  0.090762  0.087126  0  1.002227  0
H  H64  1  0.65032893  0.88889761  0.57557707  1  0.430191  0  0.306461  0.301785  0  0.942774  0
H  H65  1  0.97073154  0.80358651  0.71807649  1  0.441998  0  0.307525  0.303827  0  0.937786  0
H  H66  1  0.93002336  0.80311953  0.63489307  1  0.449619  0  0.290262  0.286346  0  1.004475  0
H  H67  1  0.30083004  0.03279751  0.53697796  1  0.434998  0  0.29545  0.286431  0  0.979333  0
H  H68  1  0.34967560  0.11110105  0.57556994  1  0.430103  0  0.30645  0.301754  0  0.942815  0
H  H69  1  0.38150576  0.79983524  0.94194847  1  0.090655  0  0.117436  0.106838  0  0.994383  0
H  H70  1  0.67201679  0.49528434  0.82723303  1  0.07768  0  0.109447  0.092278  0  1.027472  0
H  H71  1  0.61847143  0.20014347  0.94194529  1  0.090008  0  0.117521  0.106849  0  0.994208  0
H  H72  1  0.32798268  0.50471999  0.82723643  1  0.077539  0  0.109453  0.0923  0  1.027515  0
H  H73  1  0.38544045  0.19680330  0.05199846  1  0.086002  0  0.11702  0.106389  0  0.995953  0
H  H74  1  0.71314288  0.54824713  0.70171110  1  0.03934  0  0.088924  0.087301  0  1.006095  0
H  H75  1  0.67583804  0.51087314  0.16566573  1  0.098063  0  0.110415  0.094234  0  1.015115  0
H  H76  1  0.61454788  0.80321518  0.05200298  1  0.085748  0  0.11705  0.106375  0  0.995989  0
H  H77  1  0.32415538  0.48913922  0.16567492  1  0.098382  0  0.110428  0.094242  0  1.015103  0
H  H78  1  0.88423817  0.30620075  0.43427535  1  0.053875  0  0.1171  0.1064  0  0.995083  0
H  H79  1  0.17247311  0.98862773  0.31050321  1  0.082023  0  0.109154  0.092042  0  1.017116  0
H  H80  1  0.11577713  0.69380119  0.43426577  1  0.053945  0  0.117104  0.106329  0  0.995117  0
H  H81  1  0.82751894  0.01138461  0.31051842  1  0.081896  0  0.109168  0.092072  0  1.016987  0
H  H82  1  0.88241176  0.70219965  0.54161065  1  0.078691  0  0.116783  0.106283  0  0.995307  0
H  H83  1  0.17897443  0.00150904  0.64687117  1  0.091252  0  0.111648  0.101292  0  1.023659  0
H  H84  1  0.11760463  0.29780495  0.54160663  1  0.078855  0  0.116765  0.106334  0  0.99543  0
H  H85  1  0.28487920  0.88343836  0.86921392  1  0.017959  0  0.090728  0.087159  0  1.00205  0
H  H86  1  0.82105871  0.99847979  0.64688839  1  0.091861  0  0.111701  0.101549  0  1.023695  0
H  H87  1  0.77904609  0.04815805  0.77042772  1  0.039677  0  0.091678  0.091697  0  1.003053  0
C  C88  1  0.46639549  0.36202712  0.83717558  1  0.907438  0  0.196151  0.347585  0  4.07754  0
C  C89  1  0.76339161  0.14915276  0.42990986  1  0.871838  0  0.17953  0.309016  0  4.110576  0
C  C90  1  0.02676798  0.12366992  0.31801440  1  0.907101  0  0.196591  0.348302  0  4.07603  0
C  C91  1  0.23662624  0.85084586  0.42990836  1  0.87166  0  0.179431  0.309081  0  4.11066  0
C  C92  1  0.96745025  0.13184857  0.64405349  1  0.912975  0  0.195071  0.346028  0  4.077341  0
C  C93  1  0.76550383  0.86337770  0.55007691  1  0.862883  0  0.188493  0.326605  0  4.118922  0
C  C94  1  0.03256979  0.86815780  0.64404287  1  0.91301  0  0.195299  0.346383  0  4.077587  0
C  C95  1  0.23450453  0.13662312  0.55006503  1  0.863168  0  0.188443  0.326462  0  4.11868  0
C  C96  1  0.34985741  0.74206455  0.94158500  1  0.344873  0  -0.000517  -0.063627  0  4.045687  0
C  C97  1  0.62480824  0.53921874  0.83830840  1  0.406317  0  0.004731  -0.039431  0  3.99283  0
C  C98  1  0.65012159  0.25791353  0.94158307  1  0.36814  0  -0.000675  -0.063515  0  4.045023  0
C  C99  1  0.26666798  0.63888914  0.92635723  1  0.894928  0  0.188075  0.329125  0  4.11978  0
C  C100  1  0.37518849  0.46078319  0.83831004  1  0.406444  0  0.004679  -0.039558  0  3.992933  0
C  C101  1  0.35160612  0.25319841  0.04632189  1  0.424722  0  0.002643  -0.057478  0  4.031093  0
C  C102  1  0.62595829  0.47007393  0.15638349  1  0.359036  0  0.005599  -0.039767  0  4.003013  0
C  C103  1  0.64838003  0.74681729  0.04631526  1  0.424828  0  0.002524  -0.057474  0  4.031064  0
C  C104  1  0.37403845  0.52993300  0.15639063  1  0.359166  0  0.005495  -0.039849  0  4.002988  0
C  C105  1  0.85113621  0.24937574  0.43657329  1  0.446332  0  0.003647  -0.057603  0  4.01808  0
C  C106  1  0.12357009  0.03071665  0.32115782  1  0.371062  0  0.003983  -0.042742  0  4.009238  0
C  C107  1  0.14887662  0.75062694  0.43656495  1  0.446143  0  0.003594  -0.057435  0  4.018301  0
C  C108  1  0.87641567  0.96928777  0.32116805  1  0.371706  0  0.003885  -0.042796  0  4.008714  0
C  C109  1  0.84997412  0.75976074  0.53931362  1  0.397971  0  0.000135  -0.061485  0  4.043435  0
C  C110  1  0.53360129  0.63797169  0.83717542  1  0.907422  0  0.196126  0.347389  0  4.077415  0
C  C111  1  0.12869267  0.96095737  0.63845830  1  0.423392  0  0.007923  -0.031261  0  3.970284  0
C  C112  1  0.15003877  0.24024250  0.53930438  1  0.39757  0  0.000251  -0.061353  0  4.043422  0
C  C113  1  0.87133536  0.03903707  0.63846914  1  0.422432  0  0.007816  -0.031931  0  3.970688  0
C  C114  1  0.40482661  0.39714480  0.79417800  1  0.012073  0  -0.052686  -0.107939  0  4.110661  0
C  C115  1  0.27651898  0.72264201  0.90851410  1  0.064015  0  -0.053505  -0.105209  0  4.13709  0
C  C116  1  0.59517282  0.60285453  0.79417732  1  0.012596  0  -0.052692  -0.107974  0  4.110652  0
C  C117  1  0.72346295  0.27733351  0.90851168  1  0.041876  0  -0.053321  -0.105342  0  4.136982  0
C  C118  1  0.41174363  0.58401379  0.20501930  1  0.087186  0  -0.052654  -0.110708  0  4.106257  0
C  C119  1  0.27092343  0.26882198  0.06332487  1  0.027663  0  -0.054458  -0.106001  0  4.139019  0
C  C120  1  0.58826401  0.41598623  0.20500928  1  0.087006  0  -0.052726  -0.111028  0  4.106403  0
C  C121  1  0.73331036  0.36108743  0.92635619  1  0.895805  0  0.188158  0.329371  0  4.120085  0
C  C122  1  0.72906154  0.73119595  0.06331584  1  0.027834  0  -0.054548  -0.106178  0  4.139346  0
C  C123  1  0.91326715  0.91271137  0.27399963  1  0.032412  0  -0.05345  -0.110778  0  4.110169  0
C  C124  1  0.77117493  0.23407044  0.41699991  1  -0.022618  0  -0.053408  -0.103699  0  4.145394  0
C  C125  1  0.08671069  0.08729148  0.27399729  1  0.032415  0  -0.053711  -0.110754  0  4.110333  0
C  C126  1  0.22884218  0.76592498  0.41700407  1  -0.022391  0  -0.053318  -0.103649  0  4.145584  0
C  C127  1  0.90364553  0.09861425  0.68510689  1  -0.000552  0  -0.052644  -0.109854  0  4.110213  0
C  C128  1  0.77571410  0.78031058  0.57042241  1  0.038418  0  -0.054893  -0.110175  0  4.137932  0
C  C129  1  0.09637731  0.90138538  0.68509586  1  -0.001524  0  -0.052606  -0.11015  0  4.110473  0
C  C130  1  0.22429536  0.21969022  0.57041449  1  0.038499  0  -0.054891  -0.110242  0  4.137784  0
C  C131  1  0.32218216  0.58652078  0.31346894  1  -0.020893  0  -0.12197  -0.128619  0  4.090344  0
C  C132  1  0.47271732  0.61980811  0.16213408  1  0.901561  0  0.196427  0.348325  0  4.077634  0
C  C133  1  0.77952696  0.86357926  0.11259483  1  -0.032091  0  -0.115047  -0.106731  0  4.088301  0
C  C134  1  0.67783316  0.41346670  0.31345400  1  -0.02153  0  -0.121916  -0.128645  0  4.090412  0
C  C135  1  0.22045511  0.13644157  0.11259856  1  -0.033679  0  -0.115387  -0.107185  0  4.088129  0
C  C136  1  0.31105255  0.39132929  0.68865331  1  -0.036364  0  -0.122202  -0.126624  0  4.096164  0
C  C137  1  0.76376264  0.14975388  0.84310544  1  0.007034  0  -0.114698  -0.104653  0  4.094285  0
C  C138  1  0.68895406  0.60867237  0.68865429  1  -0.036796  0  -0.122282  -0.12692  0  4.096259  0
C  C139  1  0.23623228  0.85021841  0.84310825  1  0.006576  0  -0.114699  -0.104789  0  4.094294  0
C  C140  1  0.80650406  0.10545378  0.78764711  1  -0.035  0  -0.120676  -0.126593  0  4.090749  0
C  C141  1  0.26835423  0.34704547  0.63333761  1  -0.038619  0  -0.115569  -0.109228  0  4.095902  0
C  C142  1  0.19350702  0.89452684  0.78764577  1  -0.035368  0  -0.120512  -0.126148  0  4.090333  0
C  C143  1  0.26204759  0.35298239  0.04677667  1  0.879571  0  0.184382  0.320678  0  4.126933  0
C  C144  1  0.73165727  0.65295233  0.63334032  1  -0.037862  0  -0.115712  -0.109012  0  4.095651  0
C  C145  1  0.82402757  0.90988231  0.16540282  1  -0.115932  0  -0.122599  -0.12771  0  4.093498  0
C  C146  1  0.27831126  0.63293559  0.36692175  1  -0.014144  0  -0.113947  -0.10248  0  4.084867  0
C  C147  1  0.17595393  0.09013125  0.16540101  1  -0.113963  0  -0.122453  -0.127432  0  4.092984  0
C  C148  1  0.72170104  0.36705260  0.36690771  1  -0.013279  0  -0.113922  -0.10228  0  4.084716  0
C  C149  1  0.38539238  0.61387974  0.27410337  1  -0.049308  0  -0.103544  -0.101351  0  4.054168  0
C  C150  1  0.78597554  0.78180655  0.10032483  1  -0.076286  0  -0.113675  -0.127665  0  4.078074  0
C  C151  1  0.61462008  0.38611459  0.27408782  1  -0.049742  0  -0.103541  -0.101264  0  4.054102  0
C  C152  1  0.21400457  0.21821294  0.10032766  1  -0.077001  0  -0.113712  -0.127613  0  4.077819  0
C  C153  1  0.37376841  0.36300331  0.72841698  1  -0.025664  0  -0.103232  -0.10343  0  4.059093  0
C  C154  1  0.52728103  0.38019732  0.16212934  1  0.902084  0  0.196484  0.348472  0  4.077703  0
C  C155  1  0.77376309  0.22963239  0.86141856  1  -0.062089  0  -0.115115  -0.131319  0  4.082597  0
C  C156  1  0.62623804  0.63699764  0.72842058  1  -0.026193  0  -0.103084  -0.103121  0  4.058999  0
C  C157  1  0.22622283  0.77034402  0.86141842  1  -0.061982  0  -0.115173  -0.131469  0  4.083018  0
C  C158  1  0.87268114  0.13125270  0.75161994  1  -0.037203  0  -0.10341  -0.103992  0  4.060635  0
C  C159  1  0.27520428  0.26598133  0.61777198  1  -0.055145  0  -0.115063  -0.128994  0  4.073034  0
C  C160  1  0.12733050  0.86874229  0.75160986  1  -0.036203  0  -0.103689  -0.104252  0  4.060806  0
C  C161  1  0.72480595  0.73401738  0.61777865  1  -0.055556  0  -0.114946  -0.129016  0  4.07306  0
C  C162  1  0.88649853  0.88164238  0.20554206  1  0.025136  0  -0.10402  -0.102665  0  4.055579  0
C  C163  1  0.28536400  0.71448952  0.37968531  1  -0.071724  0  -0.115545  -0.133416  0  4.083334  0
C  C164  1  0.11347864  0.11836622  0.20554231  1  0.025703  0  -0.103906  -0.102768  0  4.05533  0
C  C165  1  0.73793736  0.64703273  0.04677071  1  0.879762  0  0.184517  0.320752  0  4.127037  0
C  C166  1  0.71465502  0.28549820  0.37967048  1  -0.070649  0  -0.115579  -0.133628  0  4.083298  0
C  C167  1  0.97321374  0.87632942  0.31800863  1  0.907416  0  0.196566  0.348392  0  4.075675  0
N  N168  1  0.47002852  0.40035077  0.90182717  1  -0.83401  0  -0.294494  -0.300126  0  3.515154  0
N  N169  1  0.83260075  0.11773251  0.45402221  1  -0.816008  0  -0.282465  -0.271709  0  3.49385  0
N  N170  1  0.03083576  0.09297192  0.38580871  1  -0.820892  0  -0.293337  -0.299232  0  3.520833  0
N  N171  1  0.16741088  0.88227364  0.45400167  1  -0.815913  0  -0.282503  -0.271917  0  3.494188  0
N  N172  1  0.96998433  0.09649917  0.57795000  1  -0.80283  0  -0.294695  -0.302116  0  3.514747  0
N  N173  1  0.82842123  0.88891091  0.51113722  1  -0.820251  0  -0.289408  -0.288862  0  3.478923  0
N  N174  1  0.03003679  0.90350391  0.57794024  1  -0.804495  0  -0.294701  -0.301949  0  3.51455  0
N  N175  1  0.17158846  0.11109128  0.51112421  1  -0.820872  0  -0.289539  -0.288925  0  3.478737  0
N  N176  1  0.38147022  0.67647889  0.97496601  1  -0.814739  0  -0.282606  -0.194473  0  3.545782  0
N  N177  1  0.58635679  0.53839470  0.90189741  1  -0.791113  0  -0.292363  -0.185107  0  3.660746  0
N  N178  1  0.61850702  0.32350360  0.97496181  1  -0.812242  0  -0.282632  -0.194434  0  3.54545  0
N  N179  1  0.32913205  0.61194223  0.96555378  1  -0.814366  0  -0.289983  -0.287518  0  3.480439  0
N  N180  1  0.41363894  0.46160976  0.90189927  1  -0.790577  0  -0.292254  -0.184925  0  3.660479  0
N  N181  1  0.38771317  0.32150003  0.02320736  1  -0.84043  0  -0.278792  -0.189623  0  3.558955  0
N  N182  1  0.59239802  0.46457830  0.09090671  1  -0.813369  0  -0.292445  -0.184334  0  3.682067  0
N  N183  1  0.61227140  0.67851309  0.02320747  1  -0.840543  0  -0.27887  -0.189595  0  3.558701  0
N  N184  1  0.40758901  0.53543393  0.09091030  1  -0.813503  0  -0.292464  -0.184356  0  3.681932  0
N  N185  1  0.88767294  0.17994469  0.45742003  1  -0.793663  0  -0.273385  -0.182125  0  3.553976  0
N  N186  1  0.09059093  0.03533431  0.38697534  1  -0.789407  0  -0.29314  -0.184958  0  3.685845  0
N  N187  1  0.11233618  0.82006350  0.45739536  1  -0.793198  0  -0.273254  -0.182162  0  3.554075  0
N  N188  1  0.90939975  0.96466667  0.38698193  1  -0.789743  0  -0.293182  -0.184821  0  3.685554  0
N  N189  1  0.88175929  0.82420518  0.50483802  1  -0.802988  0  -0.283203  -0.193804  0  3.549251  0
N  N190  1  0.52996721  0.59965307  0.90182664  1  -0.834042  0  -0.294528  -0.30011  0  3.515117  0
N  N191  1  0.08930220  0.96128793  0.57545190  1  -0.80058  0  -0.294713  -0.186587  0  3.669607  0
N  N192  1  0.11825300  0.17579786  0.50482530  1  -0.802615  0  -0.283291  -0.193942  0  3.549088  0
N  N193  1  0.91072380  0.03870829  0.57546188  1  -0.802486  0  -0.294537  -0.186039  0  3.669583  0
N  N194  1  0.51447333  0.29598769  0.82009544  1  -1.209808  0  -0.603585  -0.643106  0  3.296829  0
N  N195  1  0.20191368  0.58902772  0.91234466  1  -1.241748  0  -0.600766  -0.644907  0  3.298083  0
N  N196  1  0.48552343  0.70401194  0.82009994  1  -1.210323  0  -0.603551  -0.642926  0  3.296551  0
N  N197  1  0.79806873  0.41094558  0.91234877  1  -1.243135  0  -0.60106  -0.645204  0  3.298078  0
N  N198  1  0.52706815  0.67838146  0.18318710  1  -1.246671  0  -0.602889  -0.647905  0  3.296496  0
N  N199  1  0.19349780  0.40097625  0.04868806  1  -1.204416  0  -0.600251  -0.644404  0  3.29146  0
N  N200  1  0.47293067  0.32162278  0.18317990  1  -1.246308  0  -0.603012  -0.648058  0  3.29637  0
N  N201  1  0.67084491  0.38804032  0.96554992  1  -0.817979  0  -0.289813  -0.287565  0  3.480059  0
N  N202  1  0.80649004  0.59904387  0.04868367  1  -1.205417  0  -0.600273  -0.644301  0  3.29188  0
N  N203  1  0.02635669  0.81539990  0.29852459  1  -1.232514  0  -0.603952  -0.647983  0  3.29489  0
N  N204  1  0.69623017  0.09889371  0.42368668  1  -1.192305  0  -0.603714  -0.651833  0  3.271003  0
N  N205  1  0.97362450  0.18459952  0.29853789  1  -1.232756  0  -0.603743  -0.647858  0  3.295126  0
N  N206  1  0.30378969  0.90110394  0.42369035  1  -1.192619  0  -0.603645  -0.65178  0  3.271111  0
N  N207  1  0.01855713  0.19392926  0.66407225  1  -1.248741  0  -0.604595  -0.646501  0  3.291839  0
N  N208  1  0.70390539  0.91633413  0.56850281  1  -1.219099  0  -0.596082  -0.638774  0  3.304625  0
N  N209  1  0.98145981  0.80608195  0.66406480  1  -1.249204  0  -0.604758  -0.646804  0  3.292346  0
N  N210  1  0.29609877  0.08366533  0.56849512  1  -1.21899  0  -0.596034  -0.638612  0  3.3049  0
N  N211  1  0.46842447  0.59123053  0.09365439  1  -0.805326  0  -0.293161  -0.298777  0  3.521807  0
N  N212  1  0.33146354  0.38377603  0.02289794  1  -0.791037  0  -0.287198  -0.28386  0  3.480424  0
N  N213  1  0.53156367  0.40878064  0.09365211  1  -0.805746  0  -0.293287  -0.298829  0  3.521667  0
N  N214  1  0.66852164  0.61623646  0.02289726  1  -0.791548  0  -0.287219  -0.283894  0  3.480394  0
N  N215  1  0.96915140  0.90702593  0.38580590  1  -0.821086  0  -0.293287  -0.299302  0  3.520937  0
