# generated using pymatgen
data_AlH18C21N7O6
_symmetry_space_group_name_H-M   'P 1'
_cell_length_a   4.17158309
_cell_length_b   13.50436547
_cell_length_c   13.50444052
_cell_angle_alpha   119.99974359
_cell_angle_beta   90.00038490
_cell_angle_gamma   90.00004603
_symmetry_Int_Tables_number   1
_chemical_formula_structural   AlH18C21N7O6
_chemical_formula_sum   'Al1 H18 C21 N7 O6'
_cell_volume   658.84526893
_cell_formula_units_Z   1
loop_
 _symmetry_equiv_pos_site_id
 _symmetry_equiv_pos_as_xyz
  1  'x, y, z'
loop_
 _atom_site_type_symbol
 _atom_site_label
 _atom_site_symmetry_multiplicity
 _atom_site_fract_x
 _atom_site_fract_y
 _atom_site_fract_z
 _atom_site_occupancy
 _atom_site_pbe_bader_charge
 _atom_site_pbe_bader_spin_density
 _atom_site_pbe_cm5_charge
 _atom_site_pbe_ddec_charge
 _atom_site_pbe_ddec_spin_density
 _atom_site_pbe_ddec_sum_bond_order
 _atom_site_pbe_magmom
Al  Al0  1  0.99999559  0.49999870  0.49999662  1  2.509364  0  0.439554  1.610285  0  2.553102  0
H  H1  1  0.20039625  0.03122219  0.89506483  1  0.05752  0  0.097207  0.114361  0  1.052814  0
H  H2  1  0.79959529  0.03122404  0.63615573  1  0.05213  0  0.097237  0.114429  0  1.052699  0
H  H3  1  0.79962527  0.10493548  0.96877394  1  0.057316  0  0.097226  0.114444  0  1.052767  0
H  H4  1  0.20039027  0.36383612  0.96877305  1  0.052137  0  0.097202  0.114336  0  1.052734  0
H  H5  1  0.79966318  0.36382845  0.89505579  1  0.057864  0  0.097163  0.114311  0  1.052766  0
H  H6  1  0.20033608  0.10494516  0.63617222  1  0.057841  0  0.097153  0.114325  0  1.0528  0
H  H7  1  0.96002062  0.73494709  0.49601028  1  0.459131  0  0.290294  0.289548  0  0.995887  0
H  H8  1  0.00105150  0.85674162  0.49513424  1  0.414641  0  0.300987  0.298173  0  0.936279  0
H  H9  1  0.03995761  0.73494521  0.73893733  1  0.456114  0  0.290277  0.289546  0  0.99588  0
H  H10  1  0.99894032  0.85673864  0.86160477  1  0.421492  0  0.300972  0.298197  0  0.936256  0
H  H11  1  0.96005593  0.26106177  0.26505280  1  0.455922  0  0.290311  0.289625  0  0.995802  0
H  H12  1  0.00108761  0.13839575  0.14325794  1  0.421382  0  0.300973  0.298291  0  0.936285  0
H  H13  1  0.03996190  0.50397908  0.26504854  1  0.4589  0  0.290276  0.289532  0  0.99591  0
H  H14  1  0.99892749  0.50485615  0.14325583  1  0.415257  0  0.300956  0.298185  0  0.93618  0
H  H15  1  0.96010440  0.50396647  0.73891619  1  0.455179  0  0.290306  0.289635  0  0.995803  0
H  H16  1  0.00115320  0.50483807  0.86158455  1  0.41835  0  0.300978  0.298261  0  0.936104  0
H  H17  1  0.03989211  0.26108209  0.49603128  1  0.455171  0  0.290284  0.28959  0  0.995845  0
H  H18  1  0.99884683  0.13841455  0.49516046  1  0.418324  0  0.301006  0.298327  0  0.936182  0
C  C19  1  0.49999877  0.41125538  0.32251748  1  1.57057  0  0.28562  0.723492  0  3.988051  0
C  C20  1  0.49999919  0.41125886  0.58873873  1  1.519503  0  0.285539  0.723322  0  3.988237  0
C  C21  1  0.49999473  0.67747818  0.58873673  1  1.506105  0  0.285622  0.723583  0  3.988024  0
C  C22  1  0.32478268  0.86525396  0.75520375  1  0.395514  0  0.090004  0.305913  0  4.127267  0
C  C23  1  0.33341568  0.98489878  0.81558431  1  -0.016614  0  -0.129576  -0.340095  0  3.9976  0
C  C24  1  0.50000545  0.04527733  0.77263803  1  0.355683  0  0.092132  0.23362  0  4.059929  0
C  C25  1  0.66657303  0.98489972  0.66931473  1  0.100451  0  -0.129602  -0.340165  0  3.997614  0
C  C26  1  0.67520686  0.86525649  0.61005076  1  0.322142  0  0.090007  0.30589  0  4.127222  0
C  C27  1  0.49999557  0.80471501  0.65235875  1  0.038653  0  -0.05398  -0.31795  0  3.931912  0
C  C28  1  0.66659865  0.18441120  0.01509734  1  -0.017248  0  -0.129552  -0.340157  0  3.997485  0
C  C29  1  0.67522262  0.24479207  0.13474267  1  0.395646  0  0.089939  0.305894  0  4.127412  0
C  C30  1  0.50000454  0.34763304  0.19528019  1  -0.025807  0  -0.053977  -0.318046  0  3.932075  0
C  C31  1  0.32478030  0.38994200  0.13474037  1  0.322219  0  0.08998  0.305871  0  4.127272  0
C  C32  1  0.33342077  0.33067729  0.01509708  1  0.100678  0  -0.129542  -0.339977  0  3.997711  0
C  C33  1  0.49999802  0.22735832  0.95471835  1  0.356067  0  0.092045  0.233528  0  4.060122  0
C  C34  1  0.66660729  0.33067707  0.81557760  1  -0.016065  0  -0.129466  -0.339802  0  3.997553  0
C  C35  1  0.67524853  0.38994124  0.75519893  1  0.407759  0  0.089986  0.305938  0  4.127395  0
C  C36  1  0.49999738  0.34763924  0.65235912  1  0.00399  0  -0.053926  -0.317974  0  3.931862  0
C  C37  1  0.32474918  0.24480159  0.61005874  1  0.407628  0  0.090025  0.306037  0  4.127351  0
C  C38  1  0.33338195  0.18441991  0.66932162  1  -0.016192  0  -0.129485  -0.339875  0  3.997471  0
C  C39  1  0.50000089  0.22736093  0.77264054  1  0.365717  0  0.092  0.23323  0  4.060074  0
N  N40  1  0.50000146  0.16666436  0.83333200  1  -1.326749  0  -0.242257  -0.136429  0  3.572462  0
N  N41  1  0.84387548  0.80644751  0.50750179  1  -1.20579  0  -0.609713  -0.622325  0  3.254261  0
N  N42  1  0.15610849  0.80644530  0.79894529  1  -1.213235  0  -0.609672  -0.622339  0  3.254261  0
N  N43  1  0.84390974  0.20105116  0.19354955  1  -1.212976  0  -0.609685  -0.622506  0  3.254389  0
N  N44  1  0.15610648  0.49248800  0.19354985  1  -1.206566  0  -0.609626  -0.622279  0  3.254256  0
N  N45  1  0.84395726  0.49248059  0.79892908  1  -1.201401  0  -0.609715  -0.622573  0  3.25433  0
N  N46  1  0.15603751  0.20106821  0.50751735  1  -1.201385  0  -0.609751  -0.62265  0  3.254407  0
O  O47  1  0.73643743  0.62568666  0.60360730  1  -1.268678  0  -0.233921  -0.610827  0  2.358373  0
O  O48  1  0.73644201  0.47791928  0.37430847  1  -1.265528  0  -0.233976  -0.610776  0  2.358352  0
O  O49  1  0.73643868  0.39638882  0.52207653  1  -1.266728  0  -0.233959  -0.610709  0  2.358403  0
O  O50  1  0.26355135  0.62568826  0.52207489  1  -1.266165  0  -0.233983  -0.610782  0  2.358295  0
O  O51  1  0.26355442  0.47792059  0.60360685  1  -1.26649  0  -0.233915  -0.610688  0  2.358431  0
O  O52  1  0.26355429  0.39638731  0.37431021  1  -1.26874  0  -0.23398  -0.610792  0  2.358399  0
