# generated using pymatgen
data_MnH9C11N2O5
_symmetry_space_group_name_H-M   'P 1'
_cell_length_a   12.51868906
_cell_length_b   12.63103996
_cell_length_c   12.63104068
_cell_angle_alpha   75.78438800
_cell_angle_beta   60.29379454
_cell_angle_gamma   60.29375389
_symmetry_Int_Tables_number   1
_chemical_formula_structural   MnH9C11N2O5
_chemical_formula_sum   'Mn4 H36 C44 N8 O20'
_cell_volume   1506.79585811
_cell_formula_units_Z   4
loop_
 _symmetry_equiv_pos_site_id
 _symmetry_equiv_pos_as_xyz
  1  'x, y, z'
loop_
 _atom_site_type_symbol
 _atom_site_label
 _atom_site_symmetry_multiplicity
 _atom_site_fract_x
 _atom_site_fract_y
 _atom_site_fract_z
 _atom_site_occupancy
 _atom_site_pbe_bader_charge
 _atom_site_pbe_bader_spin_density
 _atom_site_pbe_cm5_charge
 _atom_site_pbe_ddec_charge
 _atom_site_pbe_ddec_spin_density
 _atom_site_pbe_ddec_sum_bond_order
 _atom_site_pbe_magmom
Mn  Mn0  1  0.18125887  0.00000011  0.63748084  1  1.537597  4.558785  0.593674  1.051063  4.674489  2.284036  4.485
Mn  Mn1  1  0.06874092  0.86251930  0.49999994  1  1.537578  4.558775  0.593666  1.051092  4.674467  2.284023  4.485
Mn  Mn2  1  0.81874049  0.00000010  0.36251983  1  1.538292  4.558748  0.59368  1.051115  4.674506  2.284018  4.485
Mn  Mn3  1  0.43125875  0.13748027  0.50000072  1  1.538311  4.558756  0.593719  1.051144  4.674518  2.283949  4.485
H  H4  1  0.96538093  0.12736364  0.36767591  1  0.488297  -1e-05  0.322983  0.288578  -0.000473  0.967425  0.0
H  H5  1  0.58305697  0.13232400  0.62736248  1  0.489244  -1.3e-05  0.322923  0.288499  -0.000473  0.967429  0.0
H  H6  1  0.46042151  0.87263598  0.63232327  1  0.50074  -1.6e-05  0.322937  0.288486  -0.000473  0.967529  0.0
H  H7  1  0.34274567  0.86767651  0.37263522  1  0.497219  -1.3e-05  0.322963  0.288544  -0.000473  0.967447  0.0
H  H8  1  0.78957904  0.86767566  0.62736391  1  0.50074  -1.6e-05  0.322963  0.288549  -0.000473  0.967511  0.0
H  H9  1  0.66694205  0.87263594  0.36767622  1  0.489259  -1.3e-05  0.322934  0.28848  -0.000473  0.967479  0.0
H  H10  1  0.28461936  0.13232303  0.37263782  1  0.488346  -1e-05  0.322936  0.288491  -0.000473  0.967469  0.0
H  H11  1  0.90725528  0.12736459  0.63232281  1  0.497248  -1.3e-05  0.322939  0.288495  -0.000473  0.967428  0.0
H  H12  1  0.55173898  0.68634364  0.56097116  1  0.106773  0.000327  0.100475  0.09459  -2.7e-05  1.087624  0.0
H  H13  1  0.36271128  0.93902798  0.18634298  1  0.106648  0.000327  0.100473  0.0946  -2.7e-05  1.087586  0.0
H  H14  1  0.79905487  0.31365597  0.43902720  1  0.099287  0.000331  0.10048  0.094606  -2.7e-05  1.087613  0.0
H  H15  1  0.48808212  0.06097252  0.81365639  1  0.099918  0.000329  0.10048  0.094602  -2.7e-05  1.087633  0.0
H  H16  1  0.45094469  0.06097241  0.18634448  1  0.099277  0.000331  0.100474  0.094587  -2.7e-05  1.087651  0.0
H  H17  1  0.88728842  0.31365691  0.56097211  1  0.10664  0.000327  0.100484  0.094623  -2.7e-05  1.087586  0.0
H  H18  1  0.69826077  0.93902810  0.81365592  1  0.106973  0.000327  0.100476  0.094597  -2.7e-05  1.087607  0.0
H  H19  1  0.76191704  0.68634454  0.43902774  1  0.099902  0.000329  0.100477  0.094585  -2.7e-05  1.087628  0.0
H  H20  1  0.37803697  0.49999934  0.50000034  1  0.110835  0.000446  0.115811  0.130743  -0.00024  0.984328  0.0
H  H21  1  0.12803711  0.00000017  0.99999959  1  0.110712  0.000448  0.115828  0.130766  -0.00024  0.984314  0.0
H  H22  1  0.87196305  0.00000004  0.00000029  1  0.110842  0.000446  0.115817  0.130752  -0.00024  0.984287  0.0
H  H23  1  0.12196269  0.50000023  0.50000033  1  0.110713  0.000448  0.115815  0.130755  -0.00024  0.984287  0.0
H  H24  1  0.97768675  0.33322202  0.26603272  1  0.078508  0.000519  0.107909  0.08621  0.000326  0.974108  0.0
H  H25  1  0.49371920  0.23396711  0.83322268  1  0.076633  0.00052  0.107902  0.086185  0.000327  0.974112  0.0
H  H26  1  0.57694262  0.66677761  0.73396666  1  0.074312  0.00052  0.107906  0.08618  0.000327  0.974104  0.0
H  H27  1  0.56090844  0.76603249  0.16677759  1  0.078005  0.00052  0.107889  0.086175  0.000326  0.974097  0.0
H  H28  1  0.67305809  0.76603351  0.83322280  1  0.074297  0.00052  0.107897  0.086169  0.000327  0.974093  0.0
H  H29  1  0.75628046  0.66677754  0.26603263  1  0.076644  0.000519  0.107902  0.086187  0.000327  0.974115  0.0
H  H30  1  0.27231418  0.23396608  0.16677839  1  0.078477  0.000519  0.107921  0.0862  0.000326  0.974116  0.0
H  H31  1  0.68909055  0.33322208  0.73396789  1  0.078023  0.00052  0.107899  0.086192  0.000326  0.97408  0.0
H  H32  1  0.09767196  0.20460148  0.16677787  1  0.073122  0.000334  0.107453  0.084537  0.000123  0.985949  0.0
H  H33  1  0.51444916  0.33322116  0.70460165  1  0.075518  0.000334  0.107443  0.084521  0.000123  0.985964  0.0
H  H34  1  0.46905197  0.79539809  0.83322157  1  0.08482  0.000333  0.107437  0.084509  0.000124  0.985955  0.0
H  H35  1  0.55227271  0.66677844  0.29539792  1  0.076352  0.000335  0.107419  0.084501  0.000124  0.985956  0.0
H  H36  1  0.78094911  0.66677761  0.70460216  1  0.084811  0.000333  0.107428  0.084495  0.000124  0.985961  0.0
H  H37  1  0.73555021  0.79539800  0.16677812  1  0.075508  0.000335  0.107436  0.084508  0.000123  0.985964  0.0
H  H38  1  0.15232879  0.33322198  0.29539804  1  0.07313  0.000334  0.107457  0.084535  0.000123  0.985936  0.0
H  H39  1  0.69772689  0.20460162  0.83322187  1  0.076363  0.000335  0.107427  0.084518  0.000123  0.985943  0.0
C  C40  1  0.32317158  0.72336656  0.55898658  1  1.572686  0.017866  0.223124  0.593809  0.017368  4.190195  0.016
C  C41  1  0.13215718  0.94101412  0.22336478  1  1.573541  0.01783  0.223221  0.594059  0.017363  4.189941  0.016
C  C42  1  0.60552325  0.27663303  0.44101452  1  1.583137  0.017794  0.223233  0.593987  0.01736  4.190028  0.016
C  C43  1  0.29653849  0.05898636  0.77663235  1  1.583136  0.017861  0.223153  0.593861  0.017364  4.190218  0.016
C  C44  1  0.64447355  0.05898720  0.22336806  1  1.583145  0.017795  0.223226  0.594023  0.01736  4.190054  0.016
C  C45  1  0.11784391  0.27663393  0.55898589  1  1.57371  0.017826  0.223181  0.593973  0.017361  4.190105  0.016
C  C46  1  0.92682872  0.94101425  0.77663413  1  1.57269  0.017865  0.223198  0.593936  0.017366  4.190038  0.016
C  C47  1  0.95346186  0.72336749  0.44101289  1  1.583219  0.017862  0.223158  0.593812  0.017365  4.19021  0.016
C  C48  1  0.45217164  0.60534217  0.53308372  1  -0.001514  0.002984  -0.019658  -0.039881  0.001671  3.99098  0.001
C  C49  1  0.23525674  0.96691594  0.10534152  1  -0.015201  0.002994  -0.019675  -0.039911  0.001672  3.990935  0.001
C  C50  1  0.59059804  0.39465743  0.46691636  1  -0.025915  0.003009  -0.019654  -0.039858  0.001673  3.990957  0.001
C  C51  1  0.30751407  0.03308364  0.89465754  1  -0.024114  0.003013  -0.019671  -0.039888  0.001673  3.991023  0.001
C  C52  1  0.65940204  0.03308352  0.10534200  1  -0.0259  0.003009  -0.019662  -0.03989  0.001673  3.990958  0.001
C  C53  1  0.01474387  0.39465832  0.53308398  1  -0.015322  0.002996  -0.019662  -0.039848  0.001673  3.990925  0.001
C  C54  1  0.79782726  0.96691701  0.89465792  1  -0.001472  0.002984  -0.019674  -0.039863  0.001671  3.990908  0.001
C  C55  1  0.94248544  0.60534218  0.46691696  1  -0.024237  0.003013  -0.019674  -0.039824  0.001672  3.99094  0.001
C  C56  1  0.56392612  0.60398314  0.53448286  1  -0.091811  0.007452  -0.087295  -0.148682  0.005594  3.944153  0.004
C  C57  1  0.34841028  0.96551680  0.10398264  1  -0.060277  0.007439  -0.087272  -0.148654  0.005593  3.944088  0.004
C  C58  1  0.70239306  0.39601647  0.46551667  1  -0.045821  0.007431  -0.087314  -0.148764  0.005594  3.944206  0.004
C  C59  1  0.41791003  0.03448278  0.89601586  1  -0.066241  0.007442  -0.087307  -0.148738  0.005594  3.944207  0.004
C  C60  1  0.54760648  0.03448357  0.10398368  1  -0.045888  0.007431  -0.087303  -0.148737  0.005593  3.944197  0.004
C  C61  1  0.90158994  0.39601740  0.53448335  1  -0.060266  0.007439  -0.087297  -0.148738  0.005593  3.944146  0.004
C  C62  1  0.68607332  0.96551695  0.89601680  1  -0.092067  0.007452  -0.087282  -0.148696  0.005593  3.944119  0.004
C  C63  1  0.83208986  0.60398406  0.46551657  1  -0.066258  0.007441  -0.087298  -0.148716  0.005593  3.944144  0.004
C  C64  1  0.69076981  0.50000026  0.49999947  1  0.008308  -0.000436  -0.015138  0.057651  -0.00068  4.019075  -0.001
C  C65  1  0.44077008  0.00000019  0.99999996  1  -0.054452  -0.00043  -0.015136  0.057649  -0.00068  4.019057  -0.001
C  C66  1  0.55923011  0.00000019  0.00000013  1  0.008282  -0.000435  -0.015141  0.057647  -0.00068  4.019074  -0.001
C  C67  1  0.80922984  0.50000027  0.49999964  1  -0.054481  -0.00043  -0.015137  0.057655  -0.00068  4.019065  -0.001
C  C68  1  0.46506370  0.49999934  0.50000022  1  -0.062401  0.007547  -0.070028  -0.102491  0.005376  3.910379  0.004
C  C69  1  0.21506431  0.00000018  0.99999992  1  -0.054706  0.007541  -0.070043  -0.102523  0.005376  3.910413  0.004
C  C70  1  0.78493506  0.00000004  0.00000075  1  -0.062423  0.007547  -0.070022  -0.10251  0.005376  3.91038  0.004
C  C71  1  0.03493470  0.50000023  0.50000079  1  -0.054709  0.007541  -0.070032  -0.102548  0.005376  3.910401  0.004
C  C72  1  0.12499974  0.10314165  0.39685964  1  1.84786  0.011211  0.345135  0.636865  0.009784  4.16079  0.01
C  C73  1  0.77186471  0.10313442  0.60313525  1  1.841108  0.0113  0.345229  0.636851  0.009782  4.160652  0.01
C  C74  1  0.62499950  0.89686705  0.60313362  1  1.851661  0.011236  0.345294  0.636986  0.009777  4.160626  0.01
C  C75  1  0.47813213  0.89686792  0.39686718  1  1.841069  0.011297  0.345265  0.636895  0.009779  4.16074  0.01
C  C76  1  0.06530914  0.24282122  0.25288834  1  0.267855  0.000593  -0.044522  -0.007527  0.000561  3.828299  0.0
C  C77  1  0.56819601  0.24711080  0.74282264  1  0.293604  0.00059  -0.044505  -0.007477  0.000562  3.828241  0.0
C  C78  1  0.56101913  0.75717745  0.74711151  1  0.266069  0.000595  -0.044485  -0.007411  0.000562  3.828196  0.0
C  C79  1  0.55813020  0.75288789  0.25717734  1  0.285895  0.00059  -0.044496  -0.007437  0.000561  3.828153  0.0
C  C80  1  0.68898144  0.75288798  0.74282301  1  0.278945  0.000594  -0.044502  -0.007431  0.000562  3.828177  0.0
C  C81  1  0.68180381  0.75717737  0.25288806  1  0.27507  0.000592  -0.04449  -0.007448  0.000562  3.828193  0.0
C  C82  1  0.18469193  0.24711070  0.25717882  1  0.289429  0.000591  -0.044539  -0.00751  0.000561  3.828288  0.0
C  C83  1  0.69186941  0.24282224  0.74711152  1  0.267387  0.000592  -0.044511  -0.00748  0.000561  3.828194  0.0
N  N84  1  0.02905830  0.16204035  0.35470906  1  -1.204906  0.00653  -0.428378  -0.401524  0.004049  3.4905  0.004
N  N85  1  0.63376680  0.14529088  0.66204126  1  -1.213197  0.006533  -0.428426  -0.401491  0.004049  3.490272  0.004
N  N86  1  0.54580690  0.83795831  0.64529252  1  -1.222719  0.006536  -0.428426  -0.401547  0.004049  3.490294  0.004
N  N87  1  0.44109824  0.85470781  0.33795761  1  -1.217224  0.006536  -0.428473  -0.401586  0.00405  3.490205  0.004
N  N88  1  0.70419395  0.85470788  0.66204227  1  -1.22273  0.006537  -0.428464  -0.401606  0.004049  3.490256  0.004
N  N89  1  0.61623490  0.83795827  0.35470731  1  -1.213168  0.006532  -0.42844  -0.401516  0.004049  3.490239  0.004
N  N90  1  0.22094137  0.14529080  0.33795987  1  -1.204956  0.00653  -0.428349  -0.401417  0.004049  3.490481  0.004
N  N91  1  0.80890106  0.16204135  0.64529179  1  -1.217303  0.006536  -0.428417  -0.401485  0.00405  3.490185  0.004
O  O92  1  0.30160031  0.80424772  0.62005164  1  -1.200978  0.062702  -0.312599  -0.570502  0.044389  2.296748  0.03
O  O93  1  0.17165392  0.87994698  0.30424866  1  -1.201819  0.062776  -0.312661  -0.57067  0.044393  2.296539  0.03
O  O94  1  0.72590079  0.19575188  0.37994704  1  -1.204144  0.062714  -0.312656  -0.570646  0.044393  2.296634  0.03
O  O95  1  0.35584733  0.12005168  0.69575227  1  -1.199407  0.062634  -0.312616  -0.570546  0.044392  2.296731  0.03
O  O96  1  0.52409997  0.12005254  0.30424754  1  -1.204171  0.062713  -0.312617  -0.570592  0.044392  2.296754  0.03
O  O97  1  0.07834649  0.19575189  0.62005301  1  -1.201828  0.062776  -0.312647  -0.570641  0.044392  2.296624  0.03
O  O98  1  0.94839936  0.87994890  0.69575096  1  -1.200965  0.062702  -0.312651  -0.570609  0.044391  2.296661  0.03
O  O99  1  0.89415218  0.80424771  0.37994808  1  -1.199418  0.062632  -0.312626  -0.570534  0.04439  2.296754  0.03
O  O100  1  0.24952436  0.73503364  0.51065238  1  -1.19561  0.071777  -0.308513  -0.559021  0.050101  2.324414  0.033
O  O101  1  0.01017954  0.98934591  0.23503360  1  -1.196114  0.071816  -0.308543  -0.559108  0.050106  2.324559  0.033
O  O102  1  0.49521239  0.26496595  0.48934816  1  -1.197653  0.071765  -0.308509  -0.559031  0.050106  2.324514  0.033
O  O103  1  0.23456004  0.01065182  0.76496513  1  -1.196257  0.071659  -0.308487  -0.558985  0.0501  2.32454  0.033
O  O104  1  0.75478748  0.01065267  0.23503434  1  -1.197614  0.071764  -0.308537  -0.559076  0.050104  2.324441  0.033
O  O105  1  0.23981951  0.26496685  0.51065459  1  -1.196154  0.071818  -0.30851  -0.559036  0.050106  2.324613  0.033
O  O106  1  0.00047431  0.98934782  0.76496669  1  -1.195619  0.071779  -0.308528  -0.559045  0.050103  2.324482  0.033
O  O107  1  0.01544058  0.73503453  0.48934779  1  -1.196259  0.071659  -0.308502  -0.558993  0.050099  2.324461  0.033
O  O108  1  0.12499948  0.02094250  0.47905819  1  -1.243942  0.080417  -0.291387  -0.615015  0.0639  2.410546  0.032
O  O109  1  0.85405663  0.02094345  0.52094379  1  -1.232908  0.080274  -0.291357  -0.614956  0.063898  2.410837  0.032
O  O110  1  0.62499979  0.97905435  0.52094649  1  -1.238215  0.080421  -0.291417  -0.615017  0.063895  2.411005  0.032
O  O111  1  0.39594631  0.97905433  0.47905299  1  -1.232968  0.080275  -0.291394  -0.614948  0.063895  2.411087  0.032
