# generated using pymatgen
data_AlH12C24(NO3)3
_symmetry_space_group_name_H-M   'P 1'
_cell_length_a   3.95366565
_cell_length_b   15.76759874
_cell_length_c   15.81159957
_cell_angle_alpha   60.11468460
_cell_angle_beta   87.65509279
_cell_angle_gamma   87.12870586
_symmetry_Int_Tables_number   1
_chemical_formula_structural   AlH12C24(NO3)3
_chemical_formula_sum   'Al1 H12 C24 N3 O9'
_cell_volume   853.40142937
_cell_formula_units_Z   1
loop_
 _symmetry_equiv_pos_site_id
 _symmetry_equiv_pos_as_xyz
  1  'x, y, z'
loop_
 _atom_site_type_symbol
 _atom_site_label
 _atom_site_symmetry_multiplicity
 _atom_site_fract_x
 _atom_site_fract_y
 _atom_site_fract_z
 _atom_site_occupancy
 _atom_site_pbe_bader_charge
 _atom_site_pbe_bader_spin_density
 _atom_site_pbe_cm5_charge
 _atom_site_pbe_ddec_charge
 _atom_site_pbe_ddec_spin_density
 _atom_site_pbe_ddec_sum_bond_order
 _atom_site_pbe_magmom
Al  Al0  1  0.93242698  0.50156134  0.49967496  1  2.502541  0  0.42711  1.591483  0  2.567922  0
H  H1  1  0.10748768  0.75036471  0.52704376  1  0.093193  0  0.110599  0.116011  0  0.981449  0
H  H2  1  0.13815839  0.84683871  0.61342837  1  0.110126  0  0.106427  0.115527  0  1.001599  0
H  H3  1  0.69409339  0.60546229  0.84414198  1  0.141086  0  0.115881  0.138282  0  0.982305  0
H  H4  1  0.75722485  0.04478220  0.60883415  1  0.116529  0  0.115721  0.138406  0  0.981713  0
H  H5  1  0.16315594  0.23512803  0.74749007  1  0.107797  0  0.110441  0.115899  0  0.98136  0
H  H6  1  0.19068920  0.05154595  0.84461235  1  0.128867  0  0.107121  0.115932  0  0.99925  0
H  H7  1  0.71329485  0.84708432  0.04678793  1  0.127335  0  0.115818  0.137841  0  0.984543  0
H  H8  1  0.19012806  0.52178503  0.23165477  1  0.070192  0  0.11037  0.116218  0  0.980851  0
H  H9  1  0.21861960  0.60857639  0.04857995  1  0.095282  0  0.106904  0.115082  0  1.004258  0
H  H10  1  0.75510446  0.47917565  0.71194334  1  0.623471  0  0.317445  0.361636  0  0.940582  0
H  H11  1  0.82117082  0.30248825  0.48274231  1  0.643244  0  0.317178  0.361527  0  0.937505  0
H  H12  1  0.77123151  0.71608007  0.30405019  1  0.631319  0  0.317496  0.361465  0  0.937353  0
C  C13  1  0.43959581  0.57918819  0.34825977  1  1.52472  0  0.268691  0.653663  0  4.058602  0
C  C14  1  0.40365418  0.57545872  0.57807060  1  1.489176  0  0.2686  0.655236  0  4.053607  0
C  C15  1  0.44774519  0.34954964  0.57373305  1  1.496901  0  0.268491  0.655304  0  4.054951  0
C  C16  1  0.46433172  0.93008625  0.78560101  1  1.013783  0  0.259495  0.382837  0  4.00419  0
C  C17  1  0.43420718  0.78603951  0.78682310  1  1.057451  0  0.259705  0.38192  0  4.00332  0
C  C18  1  0.46095813  0.78691426  0.92974438  1  1.116693  0  0.25931  0.382008  0  4.001972  0
C  C19  1  0.24313336  0.72103610  0.59511650  1  -0.054522  0  -0.078165  -0.056985  0  3.994121  0
C  C20  1  0.25710623  0.77408827  0.64300577  1  -0.040498  0  -0.09315  -0.141285  0  3.989357  0
C  C21  1  0.41781592  0.73129439  0.73376761  1  -0.01419  0  0.003409  0.040342  0  3.992031  0
C  C22  1  0.56893358  0.63782944  0.77420278  1  0.052923  0  -0.088038  -0.219996  0  3.89945  0
C  C23  1  0.57973897  0.58719917  0.72234788  1  0.499595  0  0.101287  0.328534  0  4.035894  0
C  C24  1  0.40871204  0.62846902  0.63221159  1  0.033207  0  -0.03101  -0.200314  0  3.986872  0
C  C25  1  0.63242078  0.08617097  0.64022027  1  0.049225  0  -0.086505  -0.218307  0  3.895001  0
C  C26  1  0.64635374  0.18843610  0.58977719  1  0.554721  0  0.10129  0.327907  0  4.039091  0
C  C27  1  0.46856977  0.24238723  0.62852151  1  0.02565  0  -0.032716  -0.201931  0  3.991596  0
C  C28  1  0.30071844  0.19217102  0.71977256  1  -0.103479  0  -0.07846  -0.057147  0  4.000468  0
C  C29  1  0.31283098  0.09108999  0.77306324  1  -0.00316  0  -0.093185  -0.141828  0  3.995025  0
C  C30  1  0.47215861  0.03812827  0.73150865  1  -0.021795  0  0.003326  0.040742  0  3.992671  0
C  C31  1  0.60359373  0.77521199  0.08702513  1  0.066613  0  -0.086495  -0.216368  0  3.894256  0
C  C32  1  0.61491922  0.72362856  0.18906408  1  0.524056  0  0.101376  0.327274  0  4.037176  0
C  C33  1  0.45825819  0.63181774  0.24145783  1  -0.053897  0  -0.031168  -0.199407  0  3.988951  0
C  C34  1  0.31155924  0.59182479  0.18990636  1  0.057704  0  -0.078406  -0.058979  0  3.999562  0
C  C35  1  0.32428070  0.63973384  0.08915292  1  -0.074911  0  -0.092691  -0.138745  0  3.992263  0
C  C36  1  0.46457838  0.73308875  0.03756510  1  -0.073469  0  0.002589  0.038778  0  3.985714  0
N  N37  1  0.44370442  0.88422650  0.73354079  1  -1.186427  0  -0.306038  -0.407041  0  3.185163  0
N  N38  1  0.44132180  0.73400427  0.88478089  1  -1.196354  0  -0.305056  -0.403196  0  3.195473  0
N  N39  1  0.47441317  0.88509399  0.88349037  1  -1.152544  0  -0.30549  -0.405261  0  3.19039  0
O  O40  1  0.20046519  0.39379302  0.59172256  1  -1.26598  0  -0.239287  -0.595025  0  2.38306  0
O  O41  1  0.20908571  0.51712118  0.39177025  1  -1.259531  0  -0.238591  -0.593747  0  2.376725  0
O  O42  1  0.17108663  0.59484905  0.51679526  1  -1.263166  0  -0.237881  -0.588643  0  2.359857  0
O  O43  1  0.68042953  0.39528376  0.50796878  1  -1.255908  0  -0.243409  -0.617549  0  2.375563  0
O  O44  1  0.64111518  0.50875585  0.59615012  1  -1.256656  0  -0.243706  -0.623294  0  2.40422  0
O  O45  1  0.65808607  0.59893792  0.39470036  1  -1.264323  0  -0.242753  -0.618266  0  2.381953  0
O  O46  1  0.74947410  0.49983045  0.76190900  1  -1.131534  0  -0.349251  -0.433665  0  2.247964  0
O  O47  1  0.82103805  0.23169243  0.50422342  1  -1.152031  0  -0.347365  -0.431665  0  2.250742  0
O  O48  1  0.76776185  0.76524734  0.23349361  1  -1.129019  0  -0.347262  -0.431208  0  2.248661  0
