# generated using pymatgen
data_AlH12C25O5F
_symmetry_space_group_name_H-M   'P 1'
_cell_length_a   6.69253086
_cell_length_b   19.21088091
_cell_length_c   21.64749739
_cell_angle_alpha   93.08946038
_cell_angle_beta   89.99939737
_cell_angle_gamma   90.00001475
_symmetry_Int_Tables_number   1
_chemical_formula_structural   AlH12C25O5F
_chemical_formula_sum   'Al4 H48 C100 O20 F4'
_cell_volume   2779.16092973
_cell_formula_units_Z   4
loop_
 _symmetry_equiv_pos_site_id
 _symmetry_equiv_pos_as_xyz
  1  'x, y, z'
loop_
 _atom_site_type_symbol
 _atom_site_label
 _atom_site_symmetry_multiplicity
 _atom_site_fract_x
 _atom_site_fract_y
 _atom_site_fract_z
 _atom_site_occupancy
 _atom_site_pbe_bader_charge
 _atom_site_pbe_bader_spin_density
 _atom_site_pbe_cm5_charge
 _atom_site_pbe_ddec_charge
 _atom_site_pbe_ddec_spin_density
 _atom_site_pbe_ddec_sum_bond_order
 _atom_site_pbe_magmom
Al  Al0  1  0.21195397  0.75003182  0.74922128  1  2.503688  0  0.400929  1.648499  0  2.565831  0
Al  Al1  1  0.78803960  0.24996692  0.25077265  1  2.50368  0  0.401066  1.648634  0  2.565599  0
Al  Al2  1  0.71195013  0.74997669  0.75078610  1  2.503607  0  0.400979  1.648519  0  2.565679  0
Al  Al3  1  0.28804792  0.25003919  0.24922643  1  2.503675  0  0.400933  1.648718  0  2.565621  0
H  H4  1  0.36203308  0.56153178  0.11419480  1  0.081288  0  0.10588  0.116304  0  1.013028  0
H  H5  1  0.63798290  0.43846862  0.88580099  1  0.081306  0  0.105862  0.116258  0  1.013109  0
H  H6  1  0.86203751  0.93846348  0.38580033  1  0.08154  0  0.105909  0.116233  0  1.013087  0
H  H7  1  0.13799640  0.06153811  0.61419824  1  0.081415  0  0.105921  0.116318  0  1.013101  0
H  H8  1  0.55727418  0.42984620  0.12563175  1  0.082669  0  0.100278  0.102995  0  1.016464  0
H  H9  1  0.77934950  0.44636368  0.21632511  1  0.076756  0  0.09602  0.087292  0  1.057406  0
H  H10  1  0.63987670  0.48125265  0.32028570  1  0.063996  0  0.103978  0.101899  0  0.992195  0
H  H11  1  0.27329790  0.50285794  0.33144165  1  0.079541  0  0.100606  0.095016  0  1.005305  0
H  H12  1  0.05167995  0.48793080  0.24016792  1  0.019843  0  0.098876  0.098378  0  1.024277  0
H  H13  1  0.94833454  0.51207134  0.75983112  1  0.019971  0  0.098906  0.098473  0  1.024261  0
H  H14  1  0.72671210  0.49713180  0.66855917  1  0.079486  0  0.100586  0.094925  0  1.005381  0
H  H15  1  0.36012733  0.51873503  0.67971557  1  0.064047  0  0.104003  0.101915  0  0.992274  0
H  H16  1  0.22066499  0.55363122  0.78367481  1  0.076863  0  0.096015  0.087335  0  1.05739  0
H  H17  1  0.44274629  0.57015539  0.87436682  1  0.083064  0  0.10028  0.103025  0  1.016311  0
H  H18  1  0.05728988  0.07015036  0.37435784  1  0.082849  0  0.100214  0.103051  0  1.016149  0
H  H19  1  0.27934400  0.05363278  0.28365590  1  0.076912  0  0.096025  0.087397  0  1.057398  0
H  H20  1  0.13984909  0.01873489  0.17970173  1  0.064256  0  0.103954  0.101928  0  0.992247  0
H  H21  1  0.77327033  0.99712980  0.16855558  1  0.079389  0  0.100537  0.094911  0  1.005299  0
H  H22  1  0.55167011  0.01206354  0.25983648  1  0.019724  0  0.098875  0.098378  0  1.024177  0
H  H23  1  0.44834288  0.98793443  0.74017225  1  0.020363  0  0.098951  0.098469  0  1.02419  0
H  H24  1  0.22669933  0.00286805  0.83144113  1  0.079493  0  0.100575  0.094933  0  1.005454  0
H  H25  1  0.86012356  0.98126283  0.82028295  1  0.064021  0  0.104015  0.10195  0  0.992259  0
H  H26  1  0.72067796  0.94636985  0.71632325  1  0.07706  0  0.09603  0.087357  0  1.057414  0
H  H27  1  0.94277542  0.92984977  0.62563286  1  0.082357  0  0.100237  0.10305  0  1.016146  0
H  H28  1  0.15537810  0.72731114  0.07645885  1  0.035466  0  0.098927  0.099711  0  1.00803  0
H  H29  1  0.36964028  0.83305461  0.08348170  1  0.038059  0  0.098052  0.092117  0  0.998601  0
H  H30  1  0.72179287  0.82684533  0.04559608  1  0.060284  0  0.098564  0.094509  0  0.999902  0
H  H31  1  0.85934395  0.71380069  0.00338608  1  0.062531  0  0.093223  0.08666  0  1.037442  0
H  H32  1  0.64463598  0.60804504  0.99650897  1  0.085002  0  0.090937  0.089607  0  1.048627  0
H  H33  1  0.35540840  0.39195796  0.00349655  1  0.085159  0  0.090974  0.089603  0  1.048475  0
H  H34  1  0.14068399  0.28620599  0.99661992  1  0.062713  0  0.093251  0.086691  0  1.037389  0
H  H35  1  0.27822162  0.17316139  0.95440114  1  0.060286  0  0.098519  0.094395  0  1.00013  0
H  H36  1  0.63036674  0.16694686  0.91651456  1  0.037984  0  0.098023  0.09202  0  0.998673  0
H  H37  1  0.84464087  0.27268616  0.92353739  1  0.035246  0  0.098953  0.099722  0  1.008039  0
H  H38  1  0.65541237  0.77268164  0.42354110  1  0.035268  0  0.099039  0.099757  0  1.008165  0
H  H39  1  0.86968015  0.66693753  0.41652587  1  0.038041  0  0.098011  0.092169  0  0.998604  0
H  H40  1  0.22181581  0.67315319  0.45441849  1  0.060171  0  0.098709  0.094779  0  0.999846  0
H  H41  1  0.35934303  0.78619820  0.49662712  1  0.062657  0  0.093337  0.086875  0  1.037487  0
H  H42  1  0.14464044  0.89195658  0.50350091  1  0.085237  0  0.090914  0.089508  0  1.04857  0
H  H43  1  0.85542486  0.10803271  0.49651101  1  0.085046  0  0.090953  0.089616  0  1.048698  0
H  H44  1  0.64068640  0.21378135  0.50338752  1  0.062286  0  0.09326  0.086684  0  1.037458  0
H  H45  1  0.77821660  0.32682914  0.54558969  1  0.06042  0  0.098505  0.094364  0  1.000131  0
H  H46  1  0.13036870  0.33305595  0.58346710  1  0.038068  0  0.098004  0.092103  0  0.99871  0
H  H47  1  0.34465890  0.22731517  0.57644588  1  0.034751  0  0.098981  0.099786  0  1.008043  0
H  H48  1  0.46074770  0.65937039  0.75770665  1  0.634097  0  0.332725  0.411176  0  0.906561  0
H  H49  1  0.53926828  0.34063410  0.24229749  1  0.634015  0  0.332792  0.41125  0  0.906459  0
H  H50  1  0.96074096  0.84063400  0.74228511  1  0.633787  0  0.33283  0.411318  0  0.90635  0
H  H51  1  0.03926904  0.15937045  0.25770839  1  0.633935  0  0.33272  0.411166  0  0.906596  0
C  C52  1  0.46110685  0.83484002  0.83700149  1  1.699849  0  0.274948  0.690813  0  4.191173  0
C  C53  1  0.53883891  0.16516742  0.16299943  1  1.699367  0  0.275062  0.690965  0  4.191465  0
C  C54  1  0.96114834  0.66515816  0.66301058  1  1.699731  0  0.275055  0.691021  0  4.191125  0
C  C55  1  0.03881086  0.33485132  0.33699914  1  1.698342  0  0.275143  0.691071  0  4.190789  0
C  C56  1  0.46210985  0.83254952  0.67054116  1  1.601586  0  0.276019  0.671421  0  4.083332  0
C  C57  1  0.53793303  0.16745321  0.32945927  1  1.602451  0  0.275846  0.671361  0  4.08346  0
C  C58  1  0.96209228  0.66745928  0.82946542  1  1.602081  0  0.276115  0.671742  0  4.082937  0
C  C59  1  0.03791474  0.33254237  0.17053408  1  1.602243  0  0.276051  0.671566  0  4.083085  0
C  C60  1  0.89957012  0.37132177  0.07123752  1  0.429352  0  0.110248  0.227812  0  4.021583  0
C  C61  1  0.10045184  0.62867454  0.92875964  1  0.429266  0  0.110319  0.227845  0  4.02158  0
C  C62  1  0.39957054  0.12867463  0.42875698  1  0.429661  0  0.110235  0.227865  0  4.021487  0
C  C63  1  0.60046487  0.87132589  0.57124113  1  0.428926  0  0.110328  0.227739  0  4.02205  0
C  C64  1  0.03081501  0.38380422  0.12080662  1  0.038013  0  -0.017134  -0.198092  0  3.982253  0
C  C65  1  0.96920396  0.61619467  0.87919009  1  0.03803  0  -0.017255  -0.198222  0  3.982383  0
C  C66  1  0.53080495  0.11619355  0.37918631  1  0.037609  0  -0.017158  -0.198131  0  3.982492  0
C  C67  1  0.46921851  0.88380383  0.62081131  1  0.037975  0  -0.017219  -0.197998  0  3.982195  0
C  C68  1  0.15286779  0.44341587  0.12295133  1  0.024078  0  0.009571  0.035534  0  3.928313  0
C  C69  1  0.84714371  0.55658463  0.87704631  1  0.02434  0  0.009639  0.03562  0  3.928178  0
C  C70  1  0.65287208  0.05658590  0.37704400  1  0.024289  0  0.009586  0.035605  0  3.928236  0
C  C71  1  0.34717379  0.94341822  0.62295321  1  0.02389  0  0.009649  0.035804  0  3.927752  0
C  C72  1  0.14045127  0.48989816  0.07456259  1  -0.017431  0  -0.008939  0.021121  0  4.021985  0
C  C73  1  0.85956919  0.51010335  0.92543460  1  -0.017795  0  -0.008916  0.021221  0  4.021865  0
C  C74  1  0.64046689  0.01010236  0.42543416  1  -0.017231  0  -0.008953  0.020999  0  4.021908  0
C  C75  1  0.35958346  0.98989709  0.57456347  1  -0.017018  0  -0.008869  0.021249  0  4.021584  0
C  C76  1  0.00508541  0.47616434  0.02410439  1  0.019193  0  0.006224  0.023149  0  3.927441  0
C  C77  1  0.99494402  0.52383363  0.97589462  1  -0.046691  0  0.006206  0.023041  0  3.927638  0
C  C78  1  0.50509661  0.02383203  0.47589185  1  0.019217  0  0.006249  0.023225  0  3.927595  0
C  C79  1  0.49494478  0.97616783  0.52410348  1  -0.046554  0  0.006189  0.023134  0  3.927616  0
C  C80  1  0.88067904  0.41518090  0.02172106  1  0.044716  0  -0.011041  -0.084915  0  4.012766  0
C  C81  1  0.11935040  0.58481489  0.97827609  1  0.044317  0  -0.011039  -0.084967  0  4.013004  0
C  C82  1  0.38069115  0.08481609  0.47827766  1  0.044229  0  -0.011043  -0.085025  0  4.012684  0
C  C83  1  0.61935023  0.91518518  0.52172461  1  0.044426  0  -0.011065  -0.085089  0  4.01302  0
C  C84  1  0.26086509  0.55141342  0.07530085  1  -0.015948  0  -0.086305  -0.171396  0  3.957301  0
C  C85  1  0.73915089  0.44858555  0.92469725  1  -0.01547  0  -0.086335  -0.171535  0  3.957355  0
C  C86  1  0.76087098  0.94858133  0.42469646  1  -0.016215  0  -0.086291  -0.171258  0  3.957226  0
C  C87  1  0.23916144  0.05141604  0.57530117  1  -0.015336  0  -0.086343  -0.17156  0  3.957341  0
C  C88  1  0.25404283  0.59808976  0.02971206  1  0.015973  0  -0.001275  0.052424  0  3.975126  0
C  C89  1  0.74598361  0.40190700  0.97028372  1  0.014896  0  -0.001307  0.052576  0  3.974954  0
C  C90  1  0.75404818  0.90190408  0.47028527  1  0.015204  0  -0.001339  0.052351  0  3.975096  0
C  C91  1  0.24599918  0.09809552  0.52971514  1  0.015092  0  -0.001348  0.052495  0  3.975086  0
C  C92  1  0.03681752  0.38468139  0.38931989  1  0.167483  0  0.008431  -0.118149  0  3.817512  0
C  C93  1  0.96306399  0.61532027  0.61068978  1  0.168321  0  0.008587  -0.117939  0  3.817024  0
C  C94  1  0.53684124  0.11533067  0.11066986  1  0.168155  0  0.008515  -0.11788  0  3.817093  0
C  C95  1  0.46298050  0.88467326  0.88933335  1  0.168152  0  0.008705  -0.117641  0  3.817111  0
C  C96  1  0.02363681  0.42872712  0.43228513  1  -0.294003  0  -0.013327  0.011593  0  4.269253  0
C  C97  1  0.97617298  0.57126795  0.56772775  1  -0.293925  0  -0.013416  0.011648  0  4.269067  0
C  C98  1  0.52360743  0.07127818  0.06771942  1  -0.294683  0  -0.013517  0.011348  0  4.269971  0
C  C99  1  0.47606041  0.92871885  0.93229115  1  -0.294455  0  -0.013573  0.011311  0  4.269975  0
C  C100  1  0.00796854  0.47737511  0.47880873  1  -0.099799  0  -0.006365  -0.011851  0  4.21321  0
C  C101  1  0.99181285  0.52261780  0.52120275  1  0.110398  0  -0.006518  -0.012467  0  4.213432  0
C  C102  1  0.50792283  0.02262785  0.02120465  1  -0.100397  0  -0.006359  -0.012037  0  4.212891  0
C  C103  1  0.49171064  0.97736981  0.97880777  1  0.111443  0  -0.006505  -0.012188  0  4.212755  0
C  C104  1  0.28886267  0.45759392  0.17665069  1  0.047224  0  -0.007064  0.070783  0  4.007856  0
C  C105  1  0.49535337  0.44736488  0.17040250  1  -0.033994  0  -0.08471  -0.119062  0  3.947794  0
C  C106  1  0.62037896  0.45661746  0.22181167  1  -0.098911  0  -0.09276  -0.089624  0  4.028059  0
C  C107  1  0.54197398  0.47620025  0.28003520  1  0.007461  0  -0.08744  -0.081579  0  3.999416  0
C  C108  1  0.33695519  0.48787317  0.28632007  1  -0.066619  0  -0.089457  -0.070443  0  4.023804  0
C  C109  1  0.21172939  0.47878541  0.23494603  1  -0.118943  0  -0.09134  -0.133828  0  3.967057  0
C  C110  1  0.71114435  0.54240762  0.82334696  1  0.047538  0  -0.007082  0.070745  0  4.007718  0
C  C111  1  0.78828510  0.52121524  0.76505439  1  -0.119003  0  -0.091411  -0.134069  0  3.967236  0
C  C112  1  0.66305482  0.51212225  0.71367986  1  -0.066977  0  -0.089347  -0.070083  0  4.02367  0
C  C113  1  0.45803453  0.52378991  0.71996378  1  0.007895  0  -0.087447  -0.081732  0  3.999518  0
C  C114  1  0.37963254  0.54338043  0.77818596  1  -0.099246  0  -0.092833  -0.089678  0  4.028125  0
C  C115  1  0.50465365  0.55263349  0.82959421  1  -0.034234  0  -0.084673  -0.119035  0  3.947498  0
C  C116  1  0.78886548  0.04240366  0.32334510  1  0.04748  0  -0.007107  0.070738  0  4.008055  0
C  C117  1  0.99536354  0.05263512  0.32958709  1  -0.033801  0  -0.084562  -0.118949  0  3.947631  0
C  C118  1  0.12037801  0.04337674  0.27817632  1  -0.099714  0  -0.092801  -0.089835  0  4.028287  0
C  C119  1  0.04195592  0.02379038  0.21995488  1  0.007535  0  -0.087457  -0.081731  0  3.999611  0
C  C120  1  0.83693688  0.01211891  0.21367785  1  -0.066658  0  -0.089327  -0.070198  0  4.02406  0
C  C121  1  0.71172529  0.02121119  0.26505185  1  -0.118905  0  -0.091381  -0.133874  0  3.967349  0
C  C122  1  0.21116395  0.95759634  0.67665300  1  0.046553  0  -0.007144  0.070429  0  4.007669  0
C  C123  1  0.28829518  0.97878584  0.73494901  1  -0.118865  0  -0.091518  -0.13403  0  3.96721  0
C  C124  1  0.16305370  0.98787852  0.78632070  1  -0.066833  0  -0.089275  -0.070014  0  4.023822  0
C  C125  1  0.95803167  0.97621186  0.78003630  1  0.007806  0  -0.087455  -0.081851  0  3.999572  0
C  C126  1  0.87964245  0.95662381  0.72181253  1  -0.099308  0  -0.09281  -0.089557  0  4.028157  0
C  C127  1  0.00467187  0.94736992  0.67040780  1  -0.033488  0  -0.084727  -0.119218  0  3.947496  0
C  C128  1  0.38515814  0.66098745  0.03532503  1  -0.002794  0  -0.012178  0.067624  0  4.017731  0
C  C129  1  0.31004765  0.72448399  0.06052230  1  -0.032259  0  -0.09555  -0.137917  0  3.990148  0
C  C130  1  0.43070328  0.78378684  0.06441900  1  0.008438  0  -0.094685  -0.078387  0  4.042123  0
C  C131  1  0.62821468  0.78026445  0.04345422  1  -0.027062  0  -0.097361  -0.095653  0  4.034537  0
C  C132  1  0.70519439  0.71683248  0.01959524  1  -0.106451  0  -0.09586  -0.074134  0  4.020202  0
C  C133  1  0.58456863  0.65737974  0.01566996  1  -0.067101  0  -0.097112  -0.135031  0  3.970216  0
C  C134  1  0.61486083  0.33901099  0.96467306  1  -0.002638  0  -0.012196  0.067428  0  4.017709  0
C  C135  1  0.41545781  0.34262205  0.98433232  1  -0.06716  0  -0.09722  -0.135061  0  3.96991  0
C  C136  1  0.29483205  0.28317246  0.98040751  1  -0.106304  0  -0.095859  -0.074077  0  4.02019  0
C  C137  1  0.37179832  0.21974131  0.95654438  1  -0.027133  0  -0.09741  -0.095795  0  4.034804  0
C  C138  1  0.56931121  0.21621369  0.93557910  1  0.008561  0  -0.094533  -0.078022  0  4.042187  0
C  C139  1  0.68996833  0.27551435  0.93947395  1  -0.031832  0  -0.095521  -0.137842  0  3.990408  0
C  C140  1  0.88518344  0.83900811  0.46467419  1  -0.00168  0  -0.012166  0.067714  0  4.017633  0
C  C141  1  0.81007871  0.77551106  0.43947902  1  -0.031902  0  -0.095712  -0.13795  0  3.990611  0
C  C142  1  0.93073836  0.71620733  0.43559024  1  0.007602  0  -0.094529  -0.078414  0  4.042412  0
C  C143  1  0.12824806  0.71973355  0.45655556  1  -0.026593  0  -0.097613  -0.096113  0  4.035131  0
C  C144  1  0.20521310  0.78316349  0.48041428  1  -0.106866  0  -0.096006  -0.07438  0  4.020563  0
C  C145  1  0.08459529  0.84261887  0.48433534  1  -0.06733  0  -0.096985  -0.134753  0  3.96974  0
C  C146  1  0.11486840  0.16098863  0.53532112  1  -0.000976  0  -0.012104  0.06767  0  4.017835  0
C  C147  1  0.91545506  0.15737124  0.51567242  1  -0.067148  0  -0.097247  -0.135073  0  3.970237  0
C  C148  1  0.79483576  0.21682288  0.51959161  1  -0.105933  0  -0.0957  -0.074062  0  4.020366  0
C  C149  1  0.87179482  0.28025423  0.54344756  1  -0.027232  0  -0.097499  -0.095547  0  4.034706  0
C  C150  1  0.06931946  0.28378732  0.56440506  1  0.008771  0  -0.094598  -0.078464  0  4.042331  0
C  C151  1  0.18998061  0.22448550  0.56051305  1  -0.033406  0  -0.095533  -0.137923  0  3.990566  0
O  O152  1  0.62964845  0.81474607  0.69218252  1  -1.251043  0  -0.227172  -0.594615  0  2.398887  0
O  O153  1  0.37034661  0.18526589  0.30782490  1  -1.251096  0  -0.227098  -0.594736  0  2.397947  0
O  O154  1  0.12964229  0.68525320  0.80781676  1  -1.251203  0  -0.22728  -0.594865  0  2.398698  0
O  O155  1  0.87034979  0.31473915  0.19217437  1  -1.25128  0  -0.227194  -0.594788  0  2.398546  0
O  O156  1  0.29115813  0.81626761  0.81580676  1  -1.225727  0  -0.220458  -0.566938  0  2.298954  0
O  O157  1  0.70879210  0.18372860  0.18417883  1  -1.226615  0  -0.220535  -0.56696  0  2.299444  0
O  O158  1  0.79120172  0.68372394  0.68420443  1  -1.225972  0  -0.220465  -0.56692  0  2.29916  0
O  O159  1  0.20877243  0.31629007  0.31581225  1  -1.226199  0  -0.220694  -0.567088  0  2.298655  0
O  O160  1  0.29145491  0.81209610  0.68744236  1  -1.247797  0  -0.221817  -0.572365  0  2.346407  0
O  O161  1  0.70854165  0.18789677  0.31254877  1  -1.248306  0  -0.221645  -0.572138  0  2.347393  0
O  O162  1  0.79145183  0.68791663  0.81256572  1  -1.247918  0  -0.221734  -0.572325  0  2.346441  0
O  O163  1  0.20855071  0.31209913  0.18744450  1  -1.248071  0  -0.221746  -0.572324  0  2.346814  0
O  O164  1  0.13283497  0.68377545  0.68293121  1  -1.220576  0  -0.221388  -0.564845  0  2.289669  0
O  O165  1  0.86715711  0.31622532  0.31706181  1  -1.218723  0  -0.22128  -0.564723  0  2.289625  0
O  O166  1  0.63278074  0.81623880  0.81707692  1  -1.220367  0  -0.221174  -0.564637  0  2.289888  0
O  O167  1  0.36716950  0.18378045  0.18294025  1  -1.219538  0  -0.221324  -0.564827  0  2.28987  0
O  O168  1  0.46217285  0.70860945  0.74923300  1  -1.44686  0  -0.449946  -0.99158  0  2.212789  0
O  O169  1  0.53783267  0.29139552  0.25077022  1  -1.44676  0  -0.45001  -0.991718  0  2.212833  0
O  O170  1  0.96216077  0.79139771  0.75077218  1  -1.446597  0  -0.450028  -0.991669  0  2.212631  0
O  O171  1  0.03783877  0.20860941  0.24923244  1  -1.446595  0  -0.449916  -0.991645  0  2.212721  0
F  F172  1  0.79066481  0.31174392  0.07054837  1  -0.625816  0  -0.073903  -0.106143  0  1.416848  0
F  F173  1  0.20935715  0.68825013  0.92944554  1  -0.625829  0  -0.073954  -0.10616  0  1.416928  0
F  F174  1  0.29066886  0.18825623  0.42944743  1  -0.625829  0  -0.073877  -0.106125  0  1.416834  0
F  F175  1  0.70934862  0.81174546  0.57055300  1  -0.625556  0  -0.073873  -0.106089  0  1.417152  0
