# generated using pymatgen
data_Al2H18(C2O)15
_symmetry_space_group_name_H-M   'P 1'
_cell_length_a   4.06185497
_cell_length_b   17.19589341
_cell_length_c   17.19584822
_cell_angle_alpha   119.99983376
_cell_angle_beta   90.00140419
_cell_angle_gamma   89.99921971
_symmetry_Int_Tables_number   1
_chemical_formula_structural   Al2H18(C2O)15
_chemical_formula_sum   'Al2 H18 C30 O15'
_cell_volume   1040.16950926
_cell_formula_units_Z   1
loop_
 _symmetry_equiv_pos_site_id
 _symmetry_equiv_pos_as_xyz
  1  'x, y, z'
loop_
 _atom_site_type_symbol
 _atom_site_label
 _atom_site_symmetry_multiplicity
 _atom_site_fract_x
 _atom_site_fract_y
 _atom_site_fract_z
 _atom_site_occupancy
 _atom_site_pbe_bader_charge
 _atom_site_pbe_bader_spin_density
 _atom_site_pbe_cm5_charge
 _atom_site_pbe_ddec_charge
 _atom_site_pbe_ddec_spin_density
 _atom_site_pbe_ddec_sum_bond_order
 _atom_site_pbe_magmom
Al  Al0  1  0.97634370  0.50000311  0.50000093  1  2.507971  0  0.432597  1.599172  0  2.559248  0
Al  Al1  1  0.92145682  0.16666858  0.83333475  1  2.506874  0  0.437957  1.60183  0  2.573545  0
H  H2  1  0.13690116  0.39410978  0.80816913  1  0.110348  0  0.115177  0.139664  0  0.973774  0
H  H3  1  0.61823122  0.10453141  0.51784703  1  0.048199  0  0.093904  0.100187  0  0.986783  0
H  H4  1  0.00086208  0.15113714  0.57297901  1  0.0517  0  0.091798  0.103058  0  1.023584  0
H  H5  1  0.03460858  0.24091519  0.49435791  1  0.05457  0  0.09353  0.105017  0  1.022307  0
H  H6  1  0.65392511  0.19355061  0.43899152  1  0.049991  0  0.097658  0.107792  0  0.97906  0
H  H7  1  0.13688845  0.91406305  0.60588826  1  0.110403  0  0.115135  0.139607  0  0.973799  0
H  H8  1  0.61826462  0.91332231  0.89546591  1  0.049975  0  0.093971  0.100311  0  0.986788  0
H  H9  1  0.00089628  0.92183951  0.84886118  1  0.044541  0  0.091851  0.103232  0  1.023721  0
H  H10  1  0.03461011  0.75343924  0.75908529  1  0.051888  0  0.093532  0.105041  0  1.022276  0
H  H11  1  0.65391601  0.74544929  0.80645030  1  0.038799  0  0.097676  0.107847  0  0.979059  0
H  H12  1  0.13689702  0.19182489  0.08593884  1  0.114772  0  0.115137  0.13962  0  0.973796  0
H  H13  1  0.61823298  0.48213987  0.08667954  1  0.047371  0  0.093941  0.100281  0  0.986862  0
H  H14  1  0.00087085  0.42701613  0.07815994  1  0.054051  0  0.091803  0.103132  0  1.023626  0
H  H15  1  0.03461306  0.50564173  0.24656195  1  0.062824  0  0.093528  0.104998  0  1.022267  0
H  H16  1  0.65391270  0.56100159  0.25455351  1  0.025891  0  0.097668  0.10781  0  0.979025  0
H  H17  1  0.11708317  0.51262977  0.69159313  1  0.6301  0  0.31528  0.360274  0  0.943468  0
H  H18  1  0.11706064  0.67896865  0.48737450  1  0.620461  0  0.31525  0.360346  0  0.943336  0
H  H19  1  0.11706260  0.30840997  0.32103641  1  0.619412  0  0.315262  0.360319  0  0.943466  0
C  C20  1  0.47630354  0.42952450  0.36181803  1  1.442355  0  0.267739  0.668414  0  4.058079  0
C  C21  1  0.47631905  0.43229614  0.57047623  1  1.500218  0  0.267764  0.668348  0  4.058137  0
C  C22  1  0.47631063  0.63818753  0.56770813  1  1.503785  0  0.26777  0.668596  0  4.058057  0
C  C23  1  0.42110355  0.23264899  0.76180601  1  1.630337  0  0.289572  0.686193  0  4.03101  0
C  C24  1  0.42110711  0.02915847  0.76735238  1  1.557405  0  0.289501  0.686073  0  4.031054  0
C  C25  1  0.42111408  0.23818942  0.97084383  1  1.632393  0  0.289508  0.686091  0  4.031053  0
C  C26  1  0.42494014  0.28137646  0.71014503  1  -0.076876  0  0.004485  -0.031431  0  3.970848  0
C  C27  1  0.45139089  0.38028830  0.61609088  1  0.020548  0  -0.034623  -0.253719  0  4.000292  0
C  C28  1  0.58155742  0.24686415  0.62698431  1  0.01572  0  -0.021455  0.004641  0  3.922837  0
C  C29  1  0.27502402  0.41308655  0.69854876  1  0.551036  0  0.101158  0.330163  0  4.033612  0
C  C30  1  0.59944217  0.29605530  0.58310236  1  -0.019627  0  -0.003433  0.08661  0  3.92343  0
C  C31  1  0.27148750  0.36507000  0.74495238  1  0.001762  0  -0.094891  -0.232148  0  3.919999  0
C  C32  1  0.76366730  0.16658024  0.55334262  1  -0.028118  0  -0.152876  -0.191207  0  3.865742  0
C  C33  1  0.78473482  0.22280510  0.50352371  1  -0.02925  0  -0.152579  -0.199142  0  3.860459  0
C  C34  1  0.42494445  0.92877314  0.71861876  1  -0.019991  0  0.004667  -0.031353  0  3.970757  0
C  C35  1  0.45138350  0.73580592  0.61971230  1  0.032984  0  -0.034602  -0.253728  0  4.000374  0
C  C36  1  0.58158046  0.88012434  0.75313226  1  0.034075  0  -0.021539  0.004619  0  3.922766  0
C  C37  1  0.27501765  0.78546707  0.58691147  1  0.571044  0  0.101069  0.329964  0  4.033936  0
C  C38  1  0.59945172  0.78705344  0.70394511  1  -0.064415  0  -0.003432  0.086562  0  3.923543  0
C  C39  1  0.27147965  0.87988526  0.63492582  1  0.001997  0  -0.094828  -0.231957  0  3.920084  0
C  C40  1  0.76370068  0.88676933  0.83342255  1  -0.016054  0  -0.153036  -0.191556  0  3.866008  0
C  C41  1  0.78473798  0.78072281  0.77719582  1  -0.012502  0  -0.152555  -0.199153  0  3.860598  0
C  C42  1  0.42493924  0.28984486  0.07122981  1  -0.087668  0  0.004617  -0.031407  0  3.970777  0
C  C43  1  0.45137772  0.38390796  0.26419569  1  0.038038  0  -0.034616  -0.253657  0  4.000128  0
C  C44  1  0.58156979  0.37300827  0.11987942  1  0.090573  0  -0.021489  0.004661  0  3.922517  0
C  C45  1  0.27501720  0.30144728  0.21453508  1  0.507136  0  0.101048  0.329885  0  4.033612  0
C  C46  1  0.59944199  0.41689284  0.21295082  1  -0.095989  0  -0.003476  0.086555  0  3.92367  0
C  C47  1  0.27148574  0.25504106  0.12011585  1  0.088939  0  -0.094797  -0.231932  0  3.920193  0
C  C48  1  0.76367628  0.44665108  0.11323302  1  -0.023697  0  -0.152979  -0.191491  0  3.865769  0
C  C49  1  0.78472979  0.49647047  0.21927993  1  -0.012503  0  -0.15256  -0.199064  0  3.860512  0
O  O50  1  0.71718520  0.59995048  0.58296141  1  -1.260063  0  -0.236109  -0.589463  0  2.352463  0
O  O51  1  0.71717669  0.48301458  0.40005381  1  -1.257974  0  -0.235989  -0.589325  0  2.352496  0
O  O52  1  0.71719438  0.41704211  0.51698771  1  -1.25471  0  -0.236064  -0.58935  0  2.352393  0
O  O53  1  0.25222394  0.59484317  0.50700272  1  -1.270821  0  -0.24698  -0.628466  0  2.37647  0
O  O54  1  0.25224080  0.49300158  0.58783981  1  -1.26967  0  -0.246924  -0.628249  0  2.376534  0
O  O55  1  0.25221897  0.41216364  0.40516139  1  -1.269629  0  -0.246969  -0.62838  0  2.376595  0
O  O56  1  0.65692465  0.18325618  0.93265909  1  -1.26102  0  -0.232811  -0.596263  0  2.341416  0
O  O57  1  0.65691194  0.24940053  0.81674314  1  -1.257886  0  -0.232816  -0.596317  0  2.341383  0
O  O58  1  0.65691616  0.06734444  0.75060104  1  -1.259246  0  -0.232845  -0.596312  0  2.341281  0
O  O59  1  0.18532773  0.25293996  0.93109474  1  -1.255564  0  -0.231401  -0.594129  0  2.338327  0
O  O60  1  0.18533472  0.06890826  0.82184766  1  -1.257294  0  -0.231378  -0.594061  0  2.338425  0
O  O61  1  0.18532535  0.17815482  0.74706114  1  -1.257682  0  -0.231422  -0.594165  0  2.338464  0
O  O62  1  0.11123649  0.49218111  0.73637795  1  -1.141472  0  -0.353406  -0.443187  0  2.250306  0
O  O63  1  0.11121277  0.74420197  0.50781954  1  -1.128751  0  -0.353319  -0.443161  0  2.250296  0
O  O64  1  0.11121345  0.26362191  0.25580175  1  -1.132008  0  -0.353354  -0.443144  0  2.250237  0
