# generated using pymatgen
data_Dy2Cu3H30C24(NO4)6
_symmetry_space_group_name_H-M   'P 1'
_cell_length_a   13.38769335
_cell_length_b   13.38769902
_cell_length_c   14.33335391
_cell_angle_alpha   90.00022153
_cell_angle_beta   89.99988526
_cell_angle_gamma   120.00018744
_symmetry_Int_Tables_number   1
_chemical_formula_structural   Dy2Cu3H30C24(NO4)6
_chemical_formula_sum   'Dy4 Cu6 H60 C48 N12 O48'
_cell_volume   2224.79157851
_cell_formula_units_Z   2
loop_
 _symmetry_equiv_pos_site_id
 _symmetry_equiv_pos_as_xyz
  1  'x, y, z'
loop_
 _atom_site_type_symbol
 _atom_site_label
 _atom_site_symmetry_multiplicity
 _atom_site_fract_x
 _atom_site_fract_y
 _atom_site_fract_z
 _atom_site_occupancy
 _atom_site_pbe_bader_charge
 _atom_site_pbe_bader_spin_density
 _atom_site_pbe_cm5_charge
 _atom_site_pbe_ddec_charge
 _atom_site_pbe_ddec_spin_density
 _atom_site_pbe_ddec_sum_bond_order
 _atom_site_pbe_magmom
Dy  Dy0  1  0.66666661  0.33333251  0.16835067  1  2.189025  0.002562  1.511922  2.094512  0.003444  2.153238  0.005
Dy  Dy1  1  0.33333269  0.66666497  0.33165670  1  2.189608  0.00256  1.5119  2.09456  0.003444  2.153186  0.005
Dy  Dy2  1  0.33333514  0.66666501  0.83164854  1  2.189007  0.002562  1.51192  2.094569  0.003444  2.15328  0.005
Dy  Dy3  1  0.66666658  0.33333353  0.66834390  1  2.189617  0.002561  1.511899  2.094506  0.003444  2.153269  0.005
Cu  Cu4  1  0.00000025  0.50000035  0.00000021  1  1.050853  0.578548  0.744614  0.76579  0.735025  2.207843  0.577
Cu  Cu5  1  0.50000014  0.49999999  0.00000044  1  1.049917  0.578564  0.744628  0.765783  0.73503  2.207815  0.577
Cu  Cu6  1  0.49999889  0.99999885  0.00000064  1  1.048067  0.578527  0.744563  0.765746  0.735024  2.207952  0.577
Cu  Cu7  1  0.50000029  0.00000023  0.50000044  1  1.050833  0.578554  0.744649  0.765892  0.735032  2.20773  0.577
Cu  Cu8  1  0.00000034  0.49999976  0.50000112  1  1.047908  0.578549  0.744628  0.765793  0.73504  2.207786  0.577
Cu  Cu9  1  0.49999905  0.49999909  0.49999856  1  1.049988  0.578575  0.744632  0.7658  0.73504  2.207829  0.577
H  H10  1  0.03710367  0.67668964  0.91632755  1  0.502613  -0.000191  0.29006  0.253299  5e-05  1.016447  0.0
H  H11  1  0.32331074  0.36041334  0.91632671  1  0.501526  -0.000201  0.290048  0.253258  5e-05  1.016417  0.0
H  H12  1  0.63958680  0.96289529  0.91632750  1  0.500322  -0.000225  0.290059  0.253318  5e-05  1.016404  0.0
H  H13  1  0.67669239  0.03710677  0.58367162  1  0.502571  -0.000192  0.290019  0.253276  5e-05  1.016469  0.0
H  H14  1  0.96289355  0.63958516  0.58367314  1  0.500295  -0.000224  0.290041  0.253259  5e-05  1.016411  0.0
H  H15  1  0.36041511  0.32330683  0.58367173  1  0.501465  -0.000201  0.290048  0.253276  5e-05  1.016408  0.0
H  H16  1  0.96289624  0.32331122  0.08367235  1  0.502622  -0.000191  0.290037  0.253278  5e-05  1.016429  0.0
H  H17  1  0.67669046  0.63958622  0.08367389  1  0.501513  -0.000201  0.290054  0.253227  5e-05  1.016487  0.0
H  H18  1  0.36041365  0.03710352  0.08367240  1  0.500316  -0.000225  0.290064  0.253288  5e-05  1.01641  0.0
H  H19  1  0.32330870  0.96289440  0.41632758  1  0.502574  -0.000191  0.290038  0.253275  5e-05  1.016459  0.0
H  H20  1  0.03710647  0.36041408  0.41632607  1  0.500285  -0.000224  0.29004  0.253257  5e-05  1.016444  0.0
H  H21  1  0.63958534  0.67669198  0.41632677  1  0.501479  -0.000201  0.290036  0.253291  5e-05  1.016399  0.0
H  H22  1  0.86356601  0.69505362  0.97387370  1  0.05371  0.00609  0.109829  0.105007  0.003099  0.976208  0.004
H  H23  1  0.30494416  0.16851032  0.97387327  1  0.068501  0.006046  0.109799  0.105022  0.003099  0.976177  0.004
H  H24  1  0.83148653  0.13643554  0.97387482  1  0.067903  0.00606  0.109818  0.10492  0.0031  0.976185  0.004
H  H25  1  0.69505701  0.86356607  0.52612550  1  0.053175  0.006092  0.109795  0.104973  0.0031  0.976174  0.004
H  H26  1  0.13643388  0.83149119  0.52612667  1  0.067369  0.006062  0.109804  0.105016  0.0031  0.976184  0.004
H  H27  1  0.16850693  0.30494206  0.52612708  1  0.067991  0.006048  0.109788  0.104985  0.0031  0.97618  0.004
H  H28  1  0.13643369  0.30494445  0.02612690  1  0.05366  0.00609  0.109807  0.104982  0.0031  0.976162  0.004
H  H29  1  0.69505971  0.83149106  0.02612872  1  0.068466  0.006047  0.109794  0.104991  0.0031  0.97618  0.004
H  H30  1  0.16851004  0.86356716  0.02612718  1  0.067842  0.00606  0.109802  0.105013  0.003099  0.976222  0.004
H  H31  1  0.30494451  0.13643467  0.47387370  1  0.053156  0.006091  0.109799  0.105001  0.003099  0.976182  0.004
H  H32  1  0.86356571  0.16850848  0.47387393  1  0.067377  0.006061  0.109805  0.105015  0.003099  0.976189  0.004
H  H33  1  0.83149085  0.69505494  0.47387282  1  0.068016  0.006048  0.109801  0.10501  0.0031  0.976156  0.004
H  H34  1  0.97299872  0.71304991  0.05431425  1  0.070234  0.000259  0.120141  0.122268  2.7e-05  0.970948  0.0
H  H35  1  0.28695403  0.25994980  0.05431547  1  0.099903  0.000255  0.120118  0.122269  2.7e-05  0.970958  0.0
H  H36  1  0.74004780  0.02700386  0.05431812  1  0.096139  0.000258  0.120097  0.122242  2.7e-05  0.970933  0.0
H  H37  1  0.71305109  0.97299960  0.44568464  1  0.072081  0.000258  0.120149  0.122301  2.7e-05  0.970896  0.0
H  H38  1  0.02700094  0.74005089  0.44568625  1  0.096031  0.000258  0.12014  0.122277  2.7e-05  0.970935  0.0
H  H39  1  0.25994698  0.28694865  0.44568591  1  0.099842  0.000255  0.120141  0.122284  2.7e-05  0.97092  0.0
H  H40  1  0.02700268  0.28695244  0.94568565  1  0.070251  0.000259  0.120128  0.122245  2.7e-05  0.970976  0.0
H  H41  1  0.71304941  0.74005200  0.94568722  1  0.099895  0.000256  0.120123  0.122258  2.7e-05  0.970986  0.0
H  H42  1  0.25994931  0.97299680  0.94568527  1  0.096062  0.000258  0.120148  0.122295  2.7e-05  0.970941  0.0
H  H43  1  0.28695000  0.02700157  0.55431387  1  0.072155  0.000259  0.12015  0.122274  2.7e-05  0.970946  0.0
H  H44  1  0.97299908  0.25994835  0.55431365  1  0.096021  0.000258  0.120154  0.122308  2.7e-05  0.970895  0.0
H  H45  1  0.74005230  0.71304985  0.55431329  1  0.09988  0.000256  0.120134  0.122273  2.7e-05  0.970949  0.0
H  H46  1  0.91527250  0.60395084  0.79394282  1  0.119032  0.001818  0.121287  0.130162  0.000943  0.965688  0.001
H  H47  1  0.39604759  0.31131896  0.79394277  1  0.11759  0.001818  0.121281  0.13016  0.000943  0.96569  0.001
H  H48  1  0.68867912  0.08472759  0.79394279  1  0.118728  0.001819  0.121277  0.130154  0.000943  0.965696  0.001
H  H49  1  0.60395355  0.91527533  0.70605775  1  0.117675  0.00182  0.121291  0.130178  0.000943  0.965597  0.001
H  H50  1  0.08472633  0.68867819  0.70605922  1  0.118688  0.00182  0.12127  0.13014  0.000943  0.965655  0.001
H  H51  1  0.31132263  0.39604816  0.70605778  1  0.117191  0.00182  0.121267  0.130159  0.000943  0.965654  0.001
H  H52  1  0.08472740  0.39605001  0.20605708  1  0.119043  0.001818  0.121283  0.130158  0.000943  0.965656  0.001
H  H53  1  0.60395274  0.68868146  0.20605852  1  0.117573  0.001818  0.121284  0.130145  0.000943  0.965627  0.001
H  H54  1  0.31131694  0.91527114  0.20605781  1  0.118682  0.001819  0.121288  0.130161  0.000943  0.965623  0.001
H  H55  1  0.39604840  0.08472497  0.29394076  1  0.117707  0.001819  0.12128  0.130149  0.000943  0.965615  0.001
H  H56  1  0.91527283  0.31132191  0.29394138  1  0.118699  0.00182  0.121265  0.130158  0.000943  0.965681  0.001
H  H57  1  0.68867889  0.60395258  0.29394142  1  0.117165  0.00182  0.12127  0.130138  0.000943  0.96563  0.001
H  H58  1  0.79601094  0.53728606  0.86845433  1  0.109522  0.000372  0.124567  0.135375  0.000189  0.997909  0.0
H  H59  1  0.46271504  0.25872587  0.86845483  1  0.118941  0.000364  0.124556  0.135403  0.000189  0.997895  0.0
H  H60  1  0.74127514  0.20398698  0.86845517  1  0.151002  0.000355  0.12457  0.135367  0.000189  0.997934  0.0
H  H61  1  0.53728724  0.79601057  0.63154398  1  0.109518  0.000371  0.124561  0.135356  0.000188  0.997908  0.0
H  H62  1  0.20399120  0.74127447  0.63154559  1  0.150962  0.000354  0.124556  0.135362  0.000189  0.997915  0.0
H  H63  1  0.25872612  0.46271564  0.63154294  1  0.118871  0.000364  0.124554  0.13538  0.000188  0.997774  0.0
H  H64  1  0.20398778  0.46271448  0.13154557  1  0.109555  0.000371  0.124564  0.135372  0.000188  0.997831  0.0
H  H65  1  0.53728573  0.74127413  0.13154646  1  0.118884  0.000364  0.124575  0.135389  0.000189  0.997902  0.0
H  H66  1  0.25872425  0.79600991  0.13154612  1  0.150985  0.000354  0.12457  0.135405  0.000189  0.997885  0.0
H  H67  1  0.46271514  0.20398931  0.36845452  1  0.109528  0.000371  0.124567  0.135364  0.000188  0.997895  0.0
H  H68  1  0.79600957  0.25872552  0.36845571  1  0.15098  0.000354  0.124552  0.135383  0.000188  0.997894  0.0
H  H69  1  0.74127167  0.53728136  0.36845626  1  0.118931  0.000364  0.124562  0.135388  0.000188  0.997782  0.0
C  C70  1  0.81611167  0.55428956  0.06925060  1  1.578464  0.00228  0.207821  0.623931  0.001296  4.175316  0.002
C  C71  1  0.44571172  0.26182075  0.06924833  1  1.578383  0.002286  0.207784  0.623917  0.001296  4.175391  0.002
C  C72  1  0.73817438  0.18389315  0.06925001  1  1.588422  0.002289  0.207887  0.623951  0.001296  4.175104  0.002
C  C73  1  0.55428917  0.81611107  0.43074731  1  1.57848  0.002281  0.207724  0.623883  0.001297  4.175379  0.002
C  C74  1  0.18388590  0.73817741  0.43075031  1  1.586767  0.002289  0.207735  0.623944  0.001297  4.175207  0.002
C  C75  1  0.26182170  0.44570834  0.43074831  1  1.579081  0.002287  0.207778  0.623969  0.001297  4.175389  0.002
C  C76  1  0.18389028  0.44571074  0.93075069  1  1.578168  0.00228  0.20779  0.623845  0.001296  4.175355  0.002
C  C77  1  0.55429259  0.73818019  0.93075297  1  1.578262  0.002286  0.207743  0.623935  0.001296  4.175184  0.002
C  C78  1  0.26181693  0.81611033  0.93075059  1  1.588019  0.002288  0.207856  0.624057  0.001296  4.175051  0.002
C  C79  1  0.44571128  0.18388775  0.56925049  1  1.579651  0.00228  0.20777  0.624041  0.001296  4.175245  0.002
C  C80  1  0.81611444  0.26182302  0.56924889  1  1.586758  0.002289  0.207759  0.623948  0.001296  4.175137  0.002
C  C81  1  0.73817576  0.55428749  0.56925089  1  1.5791  0.002287  0.207764  0.623987  0.001297  4.175385  0.002
C  C82  1  0.90518241  0.65116757  0.00754706  1  0.274555  0.000505  -0.067662  -0.178276  0.000315  3.896244  -0.002
C  C83  1  0.34883311  0.25401323  0.00754547  1  0.239448  0.000542  -0.067599  -0.178269  0.000315  3.896216  -0.002
C  C84  1  0.74598367  0.09481938  0.00754900  1  0.243018  0.000509  -0.067662  -0.178095  0.000314  3.895858  -0.002
C  C85  1  0.65117000  0.90518372  0.49245102  1  0.273203  0.000504  -0.067663  -0.178251  0.000315  3.896077  -0.002
C  C86  1  0.09481852  0.74598793  0.49245404  1  0.243592  0.000507  -0.067656  -0.178376  0.000316  3.896227  -0.002
C  C87  1  0.25401154  0.34882971  0.49245317  1  0.239972  0.00054  -0.067608  -0.178299  0.000315  3.896187  -0.002
C  C88  1  0.09481868  0.34883360  0.99245354  1  0.274606  0.000504  -0.067623  -0.178156  0.000314  3.896143  -0.002
C  C89  1  0.65116884  0.74598708  0.99245583  1  0.239447  0.000542  -0.067553  -0.17819  0.000315  3.89617  -0.002
C  C90  1  0.25401420  0.90518202  0.99245300  1  0.243114  0.000509  -0.067664  -0.178404  0.000315  3.896317  -0.002
C  C91  1  0.34883258  0.09481895  0.50754679  1  0.273174  0.000503  -0.06764  -0.178294  0.000315  3.896229  -0.002
C  C92  1  0.90518181  0.25401249  0.50754656  1  0.243557  0.000507  -0.067607  -0.178296  0.000315  3.896223  -0.002
C  C93  1  0.74598699  0.65116804  0.50754533  1  0.239977  0.000541  -0.067642  -0.178317  0.000315  3.896162  -0.002
C  C94  1  0.87173619  0.43416246  0.83877365  1  1.59079  0.001145  0.232712  0.664592  0.000939  4.094275  0.001
C  C95  1  0.56583858  0.43757836  0.83877464  1  1.576449  0.001145  0.232665  0.66457  0.000941  4.094313  0.001
C  C96  1  0.56242782  0.12826540  0.83877129  1  1.582118  0.001156  0.232627  0.66445  0.000939  4.094545  0.001
C  C97  1  0.43416284  0.87174106  0.66121975  1  1.591416  0.001147  0.232605  0.664409  0.000942  4.094808  0.001
C  C98  1  0.12825702  0.56240859  0.66121948  1  1.583659  0.001163  0.232691  0.664508  0.000949  4.095109  0.001
C  C99  1  0.43758805  0.56584337  0.66121641  1  1.577476  0.001149  0.232654  0.664455  0.000946  4.095123  0.001
C  C100  1  0.12826179  0.56583733  0.16122416  1  1.590808  0.001144  0.232728  0.66464  0.000939  4.094339  0.001
C  C101  1  0.43416325  0.56242356  0.16122666  1  1.576418  0.001145  0.232599  0.664419  0.000941  4.094422  0.001
C  C102  1  0.43757036  0.87173718  0.16123000  1  1.581985  0.001155  0.232669  0.664537  0.000938  4.094219  0.001
C  C103  1  0.56583922  0.12825763  0.33877875  1  1.591099  0.001146  0.232657  0.66449  0.000941  4.094691  0.001
C  C104  1  0.87174194  0.43758873  0.33878112  1  1.583619  0.001162  0.232688  0.664457  0.000948  4.095183  0.001
C  C105  1  0.56240694  0.43415344  0.33877931  1  1.577564  0.00115  0.232639  0.664438  0.000948  4.095205  0.001
C  C106  1  0.88336928  0.55132859  0.85757266  1  0.217683  0.001531  -0.067382  -0.206613  0.000912  3.86093  -0.001
C  C107  1  0.44866948  0.33203939  0.85757127  1  0.221441  0.001534  -0.067379  -0.206664  0.000913  3.860833  -0.001
C  C108  1  0.66795927  0.11662948  0.85757208  1  0.187857  0.001536  -0.067377  -0.206562  0.000912  3.860933  -0.001
C  C109  1  0.55133276  0.88337187  0.64242644  1  0.219036  0.00153  -0.067381  -0.20651  0.000913  3.860744  -0.001
C  C110  1  0.11662895  0.66796338  0.64242715  1  0.187447  0.001538  -0.067404  -0.206579  0.000914  3.86053  -0.001
C  C111  1  0.33203919  0.44866616  0.64242586  1  0.221761  0.001534  -0.067357  -0.206564  0.000913  3.86065  -0.001
C  C112  1  0.11663020  0.44867269  0.14242724  1  0.217641  0.001531  -0.067389  -0.206618  0.000912  3.860857  -0.001
C  C113  1  0.55133086  0.66796103  0.14242932  1  0.221482  0.001534  -0.067369  -0.206546  0.000912  3.860762  -0.001
C  C114  1  0.33203914  0.88336988  0.14242922  1  0.187694  0.001536  -0.0674  -0.206642  0.000912  3.860846  -0.001
C  C115  1  0.44866993  0.11662919  0.35757207  1  0.219206  0.001531  -0.067365  -0.206493  0.000913  3.860688  -0.001
C  C116  1  0.88337139  0.33203704  0.35757345  1  0.187477  0.001537  -0.067407  -0.206605  0.000913  3.860675  -0.001
C  C117  1  0.66796083  0.55133308  0.35757265  1  0.221678  0.001535  -0.067369  -0.206498  0.000913  3.860425  -0.001
N  N118  1  0.95764063  0.61010084  0.93869956  1  -1.075555  0.096173  -0.497511  -0.279155  0.061603  3.556751  0.08
N  N119  1  0.38989933  0.34753997  0.93869961  1  -1.08527  0.096207  -0.497488  -0.279103  0.061605  3.556736  0.08
N  N120  1  0.65245911  0.04235908  0.93870091  1  -1.084166  0.096261  -0.497502  -0.279239  0.061603  3.556726  0.08
N  N121  1  0.61010250  0.95764241  0.56129896  1  -1.07554  0.096179  -0.497507  -0.279259  0.061606  3.556785  0.08
N  N122  1  0.04235890  0.65246101  0.56130103  1  -1.083951  0.096269  -0.49746  -0.279062  0.061608  3.556644  0.08
N  N123  1  0.34753964  0.38989589  0.56129957  1  -1.085264  0.096209  -0.497527  -0.279162  0.061606  3.556765  0.08
N  N124  1  0.04235852  0.38989927  0.06130034  1  -1.075581  0.096177  -0.497488  -0.279154  0.061605  3.556682  0.08
N  N125  1  0.61010219  0.65246077  0.06130168  1  -1.085256  0.096204  -0.49752  -0.279113  0.061604  3.556735  0.08
N  N126  1  0.34753855  0.95763954  0.06130108  1  -1.084154  0.096256  -0.49747  -0.279034  0.0616  3.556685  0.08
N  N127  1  0.38989827  0.04235759  0.43870025  1  -1.075526  0.096174  -0.497498  -0.279201  0.061603  3.556746  0.08
N  N128  1  0.95764305  0.34753929  0.43869957  1  -1.083925  0.096268  -0.497525  -0.279197  0.061607  3.556812  0.08
N  N129  1  0.65245932  0.61010143  0.43869893  1  -1.085253  0.09621  -0.497507  -0.279232  0.061608  3.5568  0.08
O  O130  1  0.80808630  0.45506692  0.06234835  1  -1.177588  -0.00097  -0.400558  -0.676489  -0.00148  2.334818  0.0
O  O131  1  0.54493388  0.35301724  0.06234492  1  -1.185359  -0.000978  -0.400539  -0.676502  -0.00148  2.334905  0.0
O  O132  1  0.64697985  0.19191549  0.06234244  1  -1.180791  -0.00097  -0.400548  -0.676502  -0.00148  2.334892  0.0
O  O133  1  0.45506617  0.80808451  0.43765436  1  -1.177632  -0.00097  -0.400505  -0.676472  -0.00148  2.334761  0.0
O  O134  1  0.19191409  0.64698013  0.43765501  1  -1.180635  -0.000969  -0.4005  -0.676476  -0.00148  2.334686  0.0
O  O135  1  0.35301929  0.54493242  0.43765468  1  -1.185342  -0.000978  -0.400523  -0.676484  -0.00148  2.334786  0.0
O  O136  1  0.19191789  0.54493563  0.93765504  1  -1.177331  -0.000971  -0.40055  -0.676498  -0.00148  2.334801  0.0
O  O137  1  0.45506893  0.64698221  0.93765498  1  -1.185269  -0.000978  -0.400539  -0.67654  -0.00148  2.334841  0.0
O  O138  1  0.35301482  0.80808013  0.93765467  1  -1.180536  -0.000969  -0.400586  -0.676564  -0.00148  2.334572  0.0
O  O139  1  0.54493440  0.19191269  0.56234624  1  -1.17739  -0.00097  -0.400549  -0.676587  -0.00148  2.33476  0.0
O  O140  1  0.80808507  0.35301998  0.56234419  1  -1.180648  -0.000969  -0.400525  -0.676506  -0.00148  2.334689  0.0
O  O141  1  0.64697998  0.45506608  0.56234453  1  -1.185419  -0.000978  -0.400523  -0.676518  -0.00148  2.334802  0.0
O  O142  1  0.75608560  0.57545753  0.12493550  1  -1.186505  0.001392  -0.3213  -0.591312  0.00062  2.175505  0.001
O  O143  1  0.42454133  0.18062684  0.12493231  1  -1.186637  0.00139  -0.321298  -0.591337  0.000619  2.175441  0.001
O  O144  1  0.81936856  0.24392320  0.12493694  1  -1.199904  0.001394  -0.321369  -0.591358  0.000619  2.175447  0.001
O  O145  1  0.57545992  0.75608953  0.37506517  1  -1.186517  0.001392  -0.321232  -0.591303  0.00062  2.175669  0.001
O  O146  1  0.24391208  0.81937371  0.37506629  1  -1.198556  0.001396  -0.321251  -0.591321  0.00062  2.175412  0.001
O  O147  1  0.18062914  0.42453933  0.37506704  1  -1.187369  0.001391  -0.321267  -0.591339  0.00062  2.175603  0.001
O  O148  1  0.24391431  0.42454332  0.87506440  1  -1.186508  0.001391  -0.321295  -0.591295  0.000619  2.17553  0.001
O  O149  1  0.57546211  0.81937496  0.87506759  1  -1.186557  0.001391  -0.321281  -0.591348  0.00062  2.175387  0.001
O  O150  1  0.18062540  0.75608809  0.87506436  1  -1.199718  0.001395  -0.321311  -0.591361  0.000619  2.175489  0.001
O  O151  1  0.42454084  0.24391047  0.62493333  1  -1.187928  0.001392  -0.321255  -0.591351  0.00062  2.175586  0.001
O  O152  1  0.75608740  0.18062758  0.62493430  1  -1.198537  0.001396  -0.321252  -0.591306  0.00062  2.175402  0.001
O  O153  1  0.81936896  0.57545886  0.62493217  1  -1.187302  0.001392  -0.32125  -0.591309  0.000621  2.175648  0.001
O  O154  1  0.81268506  0.37661801  0.76959579  1  -1.21257  0.013005  -0.411964  -0.670681  0.008069  2.339776  0.01
O  O155  1  0.62338031  0.43606574  0.76959608  1  -1.207986  0.013014  -0.411964  -0.670717  0.008071  2.339719  0.01
O  O156  1  0.56393534  0.18731499  0.76959917  1  -1.203387  0.013005  -0.411857  -0.670555  0.008068  2.339982  0.01
O  O157  1  0.37662443  0.81268566  0.73040030  1  -1.212357  0.013012  -0.411886  -0.670657  0.008074  2.339933  0.01
O  O158  1  0.18731396  0.56393897  0.73039305  1  -1.203038  0.013025  -0.411995  -0.670771  0.00808  2.340178  0.01
O  O159  1  0.43606337  0.62337646  0.73039502  1  -1.208533  0.013025  -0.411959  -0.67072  0.008078  2.340091  0.01
O  O160  1  0.18731539  0.62338081  0.23040550  1  -1.212518  0.013003  -0.411971  -0.670728  0.008069  2.339717  0.01
O  O161  1  0.37662239  0.56393531  0.23040522  1  -1.207981  0.013014  -0.411952  -0.67068  0.008071  2.339797  0.01
O  O162  1  0.43606519  0.81268822  0.23040701  1  -1.20311  0.013005  -0.411905  -0.670666  0.008068  2.339762  0.01
O  O163  1  0.62337743  0.18731025  0.26959681  1  -1.212427  0.01301  -0.41196  -0.670699  0.008073  2.339869  0.01
O  O164  1  0.81268403  0.43606083  0.26960894  1  -1.203038  0.013024  -0.412  -0.67071  0.00808  2.340202  0.01
O  O165  1  0.56393418  0.37662376  0.26960279  1  -1.208642  0.013027  -0.411958  -0.670734  0.008079  2.340144  0.01
O  O166  1  0.92053035  0.39677149  0.89404811  1  -1.11845  0.08647  -0.316308  -0.513145  0.054759  2.280719  0.078
O  O167  1  0.60322407  0.52375602  0.89404445  1  -1.112804  0.086434  -0.316259  -0.513079  0.054745  2.280957  0.078
O  O168  1  0.47624030  0.07946601  0.89404795  1  -1.121191  0.086444  -0.316315  -0.513135  0.05476  2.280697  0.078
O  O169  1  0.39677210  0.92052424  0.60595019  1  -1.119092  0.086449  -0.316262  -0.513056  0.054745  2.281109  0.078
O  O170  1  0.07947012  0.47625171  0.60596085  1  -1.122161  0.086382  -0.316264  -0.513006  0.054721  2.281727  0.078
O  O171  1  0.52374926  0.60322272  0.60595368  1  -1.113161  0.086411  -0.316262  -0.513013  0.054729  2.281578  0.078
O  O172  1  0.07947191  0.60323000  0.10595110  1  -1.11851  0.086458  -0.316311  -0.513168  0.054752  2.280809  0.078
O  O173  1  0.39677595  0.47624322  0.10595615  1  -1.112765  0.086445  -0.316237  -0.513025  0.054751  2.280861  0.078
O  O174  1  0.52376047  0.92053398  0.10595404  1  -1.121159  0.086446  -0.316312  -0.513145  0.054762  2.280655  0.078
O  O175  1  0.60322985  0.07947607  0.39405041  1  -1.118988  0.086449  -0.316264  -0.513088  0.054745  2.281084  0.078
O  O176  1  0.92053022  0.52374872  0.39404185  1  -1.122121  0.086396  -0.316217  -0.512979  0.054729  2.281634  0.078
O  O177  1  0.47624860  0.39677868  0.39404064  1  -1.113143  0.086404  -0.316249  -0.512996  0.054725  2.281685  0.078
