# generated using pymatgen
data_NiH11C17SN5O4
_symmetry_space_group_name_H-M   'P 1'
_cell_length_a   12.73184151
_cell_length_b   13.74358433
_cell_length_c   13.99592753
_cell_angle_alpha   119.40497739
_cell_angle_beta   105.04670571
_cell_angle_gamma   90.00005995
_symmetry_Int_Tables_number   1
_chemical_formula_structural   NiH11C17SN5O4
_chemical_formula_sum   'Ni4 H44 C68 S4 N20 O16'
_cell_volume   2036.58557043
_cell_formula_units_Z   4
loop_
 _symmetry_equiv_pos_site_id
 _symmetry_equiv_pos_as_xyz
  1  'x, y, z'
loop_
 _atom_site_type_symbol
 _atom_site_label
 _atom_site_symmetry_multiplicity
 _atom_site_fract_x
 _atom_site_fract_y
 _atom_site_fract_z
 _atom_site_occupancy
 _atom_site_pbe_bader_charge
 _atom_site_pbe_bader_spin_density
 _atom_site_pbe_cm5_charge
 _atom_site_pbe_ddec_charge
 _atom_site_pbe_ddec_spin_density
 _atom_site_pbe_ddec_sum_bond_order
 _atom_site_pbe_magmom
Ni  Ni0  1  0.60740382  0.12197729  0.46929148  1  1.178272  1.553031  0.659481  0.748106  1.761559  2.520689  1.541
Ni  Ni1  1  0.89258981  0.65268353  0.53069884  1  1.185235  1.552945  0.659462  0.748072  1.76156  2.520737  1.541
Ni  Ni2  1  0.39259701  0.87802215  0.53070833  1  1.178294  1.553031  0.659452  0.748063  1.761559  2.520739  1.541
Ni  Ni3  1  0.10741008  0.34731613  0.46930035  1  1.185207  1.552943  0.659431  0.747999  1.761556  2.52084  1.541
H  H4  1  0.80419502  0.25083782  0.47794580  1  0.114444  0.002464  0.120884  0.099321  0.000969  1.025949  0.002
H  H5  1  0.69580033  0.77288687  0.52205037  1  0.124989  0.002449  0.120871  0.099324  0.000969  1.0259  0.002
H  H6  1  0.19580692  0.74916579  0.52205481  1  0.114299  0.002464  0.12087  0.099318  0.000969  1.025958  0.002
H  H7  1  0.30419982  0.22710912  0.47794683  1  0.125047  0.002449  0.120867  0.099325  0.000969  1.025884  0.002
H  H8  1  0.52706829  0.34025788  0.58319213  1  0.14839  0.002038  0.116923  0.094106  0.000728  1.03596  0.002
H  H9  1  0.97293246  0.75706803  0.41680941  1  0.151151  0.002036  0.116901  0.094081  0.000728  1.035996  0.002
H  H10  1  0.47293279  0.65974217  0.41680999  1  0.148373  0.002038  0.116927  0.094129  0.000728  1.035987  0.002
H  H11  1  0.02706768  0.24293224  0.58319208  1  0.151154  0.002036  0.116904  0.094089  0.000728  1.03599  0.002
H  H12  1  0.59128744  0.54585247  0.66489993  1  0.056283  0.001212  0.103831  0.109008  0.00055  1.02089  0.001
H  H13  1  0.90871052  0.88095001  0.33510270  1  0.07858  0.001201  0.103805  0.109002  0.00055  1.020996  0.001
H  H14  1  0.40871338  0.45415054  0.33510346  1  0.056012  0.001213  0.103816  0.109007  0.00055  1.020956  0.001
H  H15  1  0.09129068  0.11904892  0.66489914  1  0.07862  0.001201  0.103812  0.108992  0.00055  1.020979  0.001
H  H16  1  0.46537381  0.27630231  0.36516587  1  0.087113  0.000799  0.117044  0.108573  0.000271  1.017794  0.001
H  H17  1  0.03461738  0.91112021  0.63482350  1  0.108829  0.000783  0.117046  0.108513  0.000271  1.017665  0.001
H  H18  1  0.53462664  0.72369693  0.63483121  1  0.087112  0.000799  0.117046  0.108579  0.000271  1.017717  0.001
H  H19  1  0.96538233  0.08887579  0.36517625  1  0.109334  0.000782  0.117035  0.108518  0.000271  1.017697  0.001
H  H20  1  0.36659871  0.17677813  0.13095346  1  0.137117  0.000957  0.129289  0.136655  0.000423  0.990899  0.0
H  H21  1  0.13338921  0.04580921  0.86903365  1  0.137364  0.000961  0.129341  0.136758  0.000423  0.99068  0.0
H  H22  1  0.63340067  0.82322245  0.86904327  1  0.13657  0.000958  0.129306  0.136694  0.000424  0.990854  0.0
H  H23  1  0.86660850  0.95418762  0.13096440  1  0.137325  0.000961  0.129343  0.136732  0.000423  0.99071  0.0
H  H24  1  0.34486521  0.04119010  0.92742156  1  0.131423  5.7e-05  0.110593  0.142766  -2e-06  1.016861  0.0
H  H25  1  0.15512840  0.11376306  0.07257647  1  0.124676  5.7e-05  0.110641  0.142749  -2e-06  1.016999  0.0
H  H26  1  0.65513536  0.95881302  0.07258025  1  0.131569  5.7e-05  0.110602  0.142749  -2e-06  1.01694  0.0
H  H27  1  0.84487444  0.88623483  0.92742432  1  0.124635  5.8e-05  0.110648  0.142744  -2e-06  1.016912  0.0
H  H28  1  0.28538915  0.85113323  0.73531691  1  0.172311  4e-05  0.11425  0.148148  -1.4e-05  1.013053  0.0
H  H29  1  0.21461284  0.11580856  0.26467938  1  0.177965  4e-05  0.114239  0.148068  -1.4e-05  1.013059  0.0
H  H30  1  0.71461061  0.14886969  0.26468470  1  0.172283  4e-05  0.114263  0.148159  -1.4e-05  1.013031  0.0
H  H31  1  0.78538974  0.88419015  0.73532054  1  0.177979  4e-05  0.114236  0.148026  -1.4e-05  1.01312  0.0
H  H32  1  0.13053969  0.61629931  0.67393885  1  0.226568  0.000523  0.134894  0.113465  -6e-06  1.052466  0.0
H  H33  1  0.36946782  0.94235761  0.32606126  1  0.225528  0.000522  0.134862  0.113422  -6e-06  1.052488  0.0
H  H34  1  0.86946195  0.38369890  0.32605973  1  0.226606  0.000523  0.134877  0.113485  -6e-06  1.052402  0.0
H  H35  1  0.63053464  0.05764151  0.67393823  1  0.225549  0.000522  0.134858  0.11339  -6e-06  1.05254  0.0
H  H36  1  0.36758407  0.39916397  0.59312989  1  0.132735  0.00068  0.117128  0.106903  0.000165  1.045205  0.001
H  H37  1  0.13242260  0.80604066  0.40687549  1  0.108583  0.000682  0.117149  0.106903  0.000165  1.045222  0.001
H  H38  1  0.63241539  0.60083284  0.40686899  1  0.132387  0.00068  0.117152  0.106939  0.000165  1.045196  0.001
H  H39  1  0.86757904  0.19396040  0.59312595  1  0.10854  0.000682  0.117129  0.106907  0.000165  1.045178  0.001
H  H40  1  0.47478789  0.61202164  0.77465928  1  0.098065  0.000984  0.124112  0.125066  0.000432  1.013329  0.0
H  H41  1  0.02522070  0.83735383  0.22533859  1  0.122118  0.000968  0.124126  0.125044  0.000432  1.013321  0.0
H  H42  1  0.52521313  0.38797933  0.22533784  1  0.098051  0.000984  0.124112  0.125045  0.000432  1.013352  0.0
H  H43  1  0.97478213  0.16264620  0.77466435  1  0.122095  0.000968  0.12411  0.125006  0.000432  1.013304  0.0
H  H44  1  0.50623017  0.93324879  0.20703258  1  0.172461  0.000415  0.136021  0.113136  3.1e-05  1.016969  0.0
H  H45  1  0.99376679  0.72620545  0.79296741  1  0.166082  0.000416  0.136032  0.1131  3.1e-05  1.016915  0.0
H  H46  1  0.49376796  0.06675160  0.79296650  1  0.172445  0.000415  0.136047  0.113172  3.1e-05  1.016923  0.0
H  H47  1  0.00623048  0.27379067  0.20703247  1  0.165832  0.000416  0.136042  0.113111  3.1e-05  1.016896  0.0
C  C48  1  0.92209843  0.45500530  0.57176561  1  1.589709  0.008851  0.214983  0.586729  0.007021  4.184387  0.007
C  C49  1  0.57790068  0.88323080  0.42823077  1  1.589015  0.008842  0.214942  0.586544  0.007023  4.184526  0.007
C  C50  1  0.07790095  0.54499956  0.42823540  1  1.589619  0.008852  0.214946  0.586566  0.007021  4.184551  0.007
C  C51  1  0.42209959  0.11676621  0.57176830  1  1.589048  0.008841  0.214933  0.58655  0.007022  4.184415  0.007
C  C52  1  0.80714823  0.43135767  0.57310512  1  -0.03197  0.011164  -0.014221  -0.112537  0.006314  3.932312  0.009
C  C53  1  0.69285250  0.85825298  0.42689639  1  -0.007391  0.011123  -0.014217  -0.112472  0.006314  3.932425  0.009
C  C54  1  0.19285028  0.56864364  0.42689742  1  -0.031748  0.011164  -0.014222  -0.112512  0.006314  3.93229  0.009
C  C55  1  0.30714508  0.14174426  0.57310122  1  -0.007428  0.011123  -0.01421  -0.112495  0.006314  3.932361  0.009
C  C56  1  0.76053911  0.31875345  0.52350174  1  0.517669  -0.003239  0.052969  0.079264  -0.004019  3.892066  -0.002
C  C57  1  0.73945909  0.79525007  0.47649673  1  0.496878  -0.003206  0.052965  0.079251  -0.00402  3.89212  -0.002
C  C58  1  0.23945889  0.68124806  0.47649762  1  0.517796  -0.00324  0.052967  0.079223  -0.00402  3.892111  -0.002
C  C59  1  0.26053836  0.20474758  0.52350045  1  0.496791  -0.003206  0.052978  0.07927  -0.00402  3.892029  -0.002
C  C60  1  0.60458341  0.36955518  0.57946671  1  0.406226  -0.002428  0.041406  0.082222  -0.003229  3.947644  -0.002
C  C61  1  0.89541741  0.79008941  0.42053410  1  0.393517  -0.002403  0.041427  0.082208  -0.003231  3.947779  -0.002
C  C62  1  0.39541942  0.63044557  0.42053694  1  0.406271  -0.002428  0.041392  0.082141  -0.003229  3.947725  -0.002
C  C63  1  0.10458261  0.20990984  0.57946553  1  0.393928  -0.002405  0.041385  0.082176  -0.00323  3.947849  -0.002
C  C64  1  0.64179200  0.48264782  0.62546402  1  0.051763  0.005809  -0.087705  -0.160926  0.003358  3.972924  0.005
C  C65  1  0.85820814  0.85718607  0.37453963  1  0.01562  0.005812  -0.087696  -0.160884  0.003358  3.973197  0.005
C  C66  1  0.35820838  0.51735377  0.37454048  1  0.051983  0.005809  -0.087709  -0.160933  0.003358  3.973109  0.005
C  C67  1  0.14179442  0.14281763  0.62546530  1  0.015244  0.005812  -0.087658  -0.160835  0.003358  3.973212  0.005
C  C68  1  0.74549938  0.51685346  0.62518987  1  -0.029494  -0.004808  0.016265  0.025757  -0.005909  3.885358  -0.003
C  C69  1  0.75449849  0.89166039  0.37480631  1  -0.040495  -0.004813  0.016245  0.025691  -0.005912  3.885488  -0.003
C  C70  1  0.25449862  0.48314876  0.37481021  1  -0.029657  -0.004808  0.016255  0.025797  -0.00591  3.885237  -0.003
C  C71  1  0.24550165  0.10833988  0.62519518  1  -0.04028  -0.004813  0.016214  0.025648  -0.005912  3.885524  -0.003
C  C72  1  0.78091121  0.64342638  0.68638669  1  1.586482  0.005585  0.199847  0.565447  0.004343  4.258551  0.005
C  C73  1  0.71908924  0.95703552  0.31360727  1  1.611729  0.005529  0.199792  0.565245  0.004343  4.259014  0.005
C  C74  1  0.21908830  0.35657522  0.31361191  1  1.586459  0.005585  0.199838  0.565309  0.004343  4.25856  0.005
C  C75  1  0.28091184  0.04296382  0.68639414  1  1.611637  0.005529  0.199794  0.565335  0.004343  4.258939  0.005
C  C76  1  0.45987464  0.18987691  0.29754240  1  0.515263  0.00056  0.002919  -0.022365  5.9e-05  3.978234  0.001
C  C77  1  0.04011805  0.89232426  0.70245208  1  0.440396  0.0006  0.003005  -0.022035  5.8e-05  3.977902  0.001
C  C78  1  0.54012674  0.81012497  0.70245816  1  0.515359  0.00056  0.00294  -0.022308  5.9e-05  3.97827  0.001
C  C79  1  0.95988140  0.10767469  0.29754894  1  0.439764  0.000601  0.00299  -0.022115  5.8e-05  3.977888  0.001
C  C80  1  0.41183083  0.14250018  0.18147294  1  0.221013  0.003267  0.005365  -0.089888  0.001819  3.892182  0.002
C  C81  1  0.08815892  0.96101178  0.81851775  1  0.279147  0.003226  0.005336  -0.090104  0.001818  3.892222  0.002
C  C82  1  0.58816856  0.85750040  0.81852379  1  0.221608  0.003266  0.005343  -0.089995  0.001819  3.892267  0.002
C  C83  1  0.91183892  0.03898536  0.18148145  1  0.279269  0.003226  0.005362  -0.09001  0.001819  3.892096  0.002
C  C84  1  0.38770478  0.94579594  0.01647850  1  0.171556  0.00149  0.089532  0.085565  0.000902  4.037373  0.001
C  C85  1  0.11229145  0.92931159  0.98351660  1  0.183367  0.001493  0.089542  0.085586  0.000902  4.037303  0.001
C  C86  1  0.61229254  0.05420354  0.98351967  1  0.171556  0.00149  0.089525  0.085555  0.000902  4.037389  0.001
C  C87  1  0.88770719  0.07068574  0.01648279  1  0.1834  0.001493  0.089554  0.085571  0.000902  4.037392  0.001
C  C88  1  0.34841765  0.96035251  0.92384476  1  0.063424  -0.000495  -0.108609  -0.187161  -0.000595  4.012162  0.0
C  C89  1  0.15157787  0.03650242  0.07615299  1  0.024463  -0.000494  -0.108635  -0.18716  -0.000595  4.012258  0.0
C  C90  1  0.65157954  0.03964952  0.07615512  1  0.063311  -0.000495  -0.108645  -0.187192  -0.000595  4.012355  0.0
C  C91  1  0.84842227  0.96349500  0.92384564  1  0.024359  -0.000495  -0.108637  -0.187132  -0.000595  4.012248  0.0
C  C92  1  0.31490550  0.85599866  0.81813776  1  0.063956  0.000764  -0.097945  -0.149875  0.000338  4.00164  0.001
C  C93  1  0.18509484  0.03785505  0.18185865  1  0.098744  0.000764  -0.097913  -0.149737  0.000338  4.001688  0.001
C  C94  1  0.68509264  0.14400316  0.18186275  1  0.064003  0.000764  -0.097921  -0.149823  0.000338  4.001656  0.001
C  C95  1  0.81490680  0.96214387  0.81814065  1  0.098696  0.000764  -0.097934  -0.149705  0.000338  4.001742  0.001
C  C96  1  0.32898952  0.76506849  0.83331012  1  0.132404  0.000324  0.074174  0.051907  6.6e-05  4.053029  0.0
C  C97  1  0.17101889  0.93174973  0.16668412  1  0.130057  0.000327  0.07416  0.051801  6.6e-05  4.053145  0.0
C  C98  1  0.67101012  0.23493198  0.16668820  1  0.132383  0.000324  0.074169  0.051852  6.6e-05  4.053  0.0
C  C99  1  0.82898207  0.06824930  0.83331613  1  0.130056  0.000327  0.07417  0.051817  6.6e-05  4.053146  0.0
C  C100  1  0.20911830  0.58540420  0.67572260  1  0.936205  -0.003698  0.146076  0.112494  -0.004603  3.842958  -0.002
C  C101  1  0.29088718  0.90967882  0.32427398  1  0.92417  -0.00369  0.146119  0.112515  -0.004602  3.84298  -0.002
C  C102  1  0.79088022  0.41459283  0.32427564  1  0.936176  -0.003698  0.146046  0.112372  -0.004603  3.843034  -0.002
C  C103  1  0.70911326  0.09032328  0.67572596  1  0.924188  -0.00369  0.146126  0.112544  -0.004602  3.843009  -0.002
C  C104  1  0.33431482  0.47577464  0.63749122  1  0.398543  -0.001027  -0.002446  -0.027123  -0.001589  4.013439  -0.001
C  C105  1  0.16569366  0.83828349  0.36251076  1  0.419375  -0.001025  -0.002432  -0.027093  -0.001588  4.013469  -0.001
C  C106  1  0.66568508  0.52422360  0.36250654  1  0.39893  -0.001027  -0.002456  -0.027202  -0.001588  4.01357  -0.001
C  C107  1  0.83430623  0.16171831  0.63749057  1  0.418974  -0.001024  -0.002424  -0.027167  -0.001588  4.01349  -0.001
C  C108  1  0.38893355  0.57980878  0.72590859  1  0.298693  0.002797  -0.007545  -0.118852  0.001554  3.934825  0.002
C  C109  1  0.11107159  0.85390033  0.27409591  1  0.276831  0.002816  -0.007575  -0.118897  0.001554  3.934785  0.002
C  C110  1  0.61106608  0.42019241  0.27409044  1  0.29867  0.002797  -0.007553  -0.118813  0.001554  3.934865  0.002
C  C111  1  0.88892829  0.14610147  0.72590542  1  0.277293  0.002816  -0.007528  -0.118758  0.001554  3.934748  0.002
C  C112  1  0.48055269  0.01297222  0.22042176  1  0.964435  -0.003067  0.141965  0.100959  -0.00398  3.877249  -0.002
C  C113  1  0.01944511  0.79253956  0.77957494  1  0.940476  -0.00301  0.142  0.101012  -0.003977  3.877386  -0.002
C  C114  1  0.51944733  0.98702846  0.77957930  1  0.964402  -0.003067  0.141937  0.100869  -0.00398  3.877292  -0.002
C  C115  1  0.98055285  0.20745931  0.22042685  1  0.940837  -0.003011  0.142013  0.101068  -0.003977  3.877376  -0.002
S  S116  1  0.38448733  0.80494021  0.97686646  1  0.231867  0.000407  0.085335  0.04827  0.00018  2.808159  0.0
S  S117  1  0.11551583  0.82806886  0.02313144  1  0.226707  0.000405  0.085326  0.048304  0.00018  2.808267  0.0
S  S118  1  0.61550931  0.19505867  0.02313196  1  0.231838  0.000407  0.085344  0.048292  0.00018  2.808165  0.0
S  S119  1  0.88448119  0.17192951  0.97686900  1  0.226876  0.000405  0.085308  0.048268  0.00018  2.808319  0.0
N  N120  1  0.66308409  0.28759884  0.52824873  1  -1.22043  0.078468  -0.328395  -0.216505  0.045077  3.589712  0.07
N  N121  1  0.83691514  0.75934963  0.47174936  1  -1.214098  0.07845  -0.3284  -0.21648  0.045077  3.589887  0.07
N  N122  1  0.33691511  0.71240022  0.47175070  1  -1.220479  0.078471  -0.328356  -0.216409  0.045078  3.589738  0.07
N  N123  1  0.16308312  0.24064892  0.52824873  1  -1.214267  0.078451  -0.328377  -0.216449  0.045078  3.589805  0.07
N  N124  1  0.50233399  0.10843536  0.32057016  1  -1.182324  0.063548  -0.342104  -0.260456  0.037122  3.560838  0.056
N  N125  1  0.99766402  0.78785156  0.67942630  1  -1.171654  0.063539  -0.342121  -0.26054  0.037124  3.560661  0.056
N  N126  1  0.49766671  0.89156521  0.67942993  1  -1.182431  0.06355  -0.342098  -0.26045  0.037123  3.560937  0.056
N  N127  1  0.00233637  0.21214789  0.32057606  1  -1.171714  0.063537  -0.342111  -0.260501  0.037122  3.560807  0.056
N  N128  1  0.42544295  0.02946041  0.13294942  1  -1.271102  0.002201  -0.226852  0.018837  0.000926  3.852844  0.002
N  N129  1  0.07454988  0.89650045  0.86704630  1  -1.26341  0.002201  -0.226991  0.01873  0.000927  3.853243  0.002
N  N130  1  0.57455669  0.97054007  0.86704890  1  -1.271119  0.0022  -0.22689  0.018874  0.000926  3.852949  0.002
N  N131  1  0.92544795  0.10349740  0.13295362  1  -1.263476  0.002201  -0.22701  0.018697  0.000927  3.853245  0.002
N  N132  1  0.30881921  0.64947852  0.74909113  1  -1.267236  0.001696  -0.229779  0.022661  0.00063  3.846012  0.001
N  N133  1  0.19118309  0.90038475  0.25090758  1  -1.257013  0.001701  -0.229804  0.022724  0.00063  3.845891  0.001
N  N134  1  0.69117811  0.35052096  0.25090705  1  -1.267297  0.001695  -0.229728  0.022739  0.00063  3.846107  0.001
N  N135  1  0.80881693  0.09961450  0.74909204  1  -1.256985  0.001702  -0.229823  0.022659  0.00063  3.845909  0.001
N  N136  1  0.22270494  0.48026322  0.60715359  1  -1.209748  0.061082  -0.344196  -0.278663  0.035441  3.590777  0.055
N  N137  1  0.27729959  0.87311258  0.39284721  1  -1.201074  0.061052  -0.34421  -0.27866  0.035442  3.59068  0.055
N  N138  1  0.77729276  0.51973503  0.39284589  1  -1.209697  0.061083  -0.344208  -0.278626  0.035442  3.590779  0.055
N  N139  1  0.72270017  0.12688891  0.60715297  1  -1.201119  0.061052  -0.344207  -0.278619  0.035442  3.590656  0.055
O  O140  1  0.77760897  0.68885266  0.62447487  1  -1.165338  0.055636  -0.324049  -0.573096  0.030127  2.34248  0.048
O  O141  1  0.72238849  0.06437309  0.37551912  1  -1.170764  0.055711  -0.324033  -0.573024  0.030126  2.342545  0.048
O  O142  1  0.22238811  0.31114692  0.37552172  1  -1.165215  0.055636  -0.32404  -0.573079  0.030127  2.342484  0.048
O  O143  1  0.27761584  0.93562632  0.62448234  1  -1.170745  0.055712  -0.324019  -0.573049  0.030127  2.342556  0.048
O  O144  1  0.80186504  0.69473576  0.79338516  1  -1.120093  0.023559  -0.330731  -0.541102  0.012541  2.063971  0.02
O  O145  1  0.69814536  0.90134873  0.20661102  1  -1.126005  0.023549  -0.33064  -0.540968  0.01254  2.064189  0.02
O  O146  1  0.19813722  0.30526825  0.20661246  1  -1.120092  0.023559  -0.330722  -0.54101  0.012541  2.063905  0.02
O  O147  1  0.30185761  0.09864947  0.79339093  1  -1.125965  0.02355  -0.33067  -0.541039  0.01254  2.064161  0.02
O  O148  1  0.95899998  0.55515285  0.60197425  1  -1.167927  0.046974  -0.309129  -0.548189  0.02564  2.409192  0.04
O  O149  1  0.54100164  0.95317253  0.39802053  1  -1.168551  0.046933  -0.309092  -0.548102  0.025636  2.409081  0.04
O  O150  1  0.04099966  0.44484905  0.39802550  1  -1.167837  0.046974  -0.309134  -0.548144  0.02564  2.409058  0.04
O  O151  1  0.45900057  0.04682598  0.60197666  1  -1.168689  0.046934  -0.309105  -0.548092  0.025638  2.40914  0.04
O  O152  1  0.97608147  0.37224382  0.54242453  1  -1.140381  0.081439  -0.301579  -0.538593  0.045363  2.351791  0.073
O  O153  1  0.52392090  0.82981896  0.45758155  1  -1.139428  0.081448  -0.301545  -0.53848  0.045358  2.351913  0.073
O  O154  1  0.02392097  0.62776101  0.45758067  1  -1.140456  0.081435  -0.301518  -0.538462  0.04536  2.351889  0.073
O  O155  1  0.47608275  0.17017913  0.54241944  1  -1.139399  0.081451  -0.301529  -0.538492  0.04536  2.351828  0.073
