# generated using pymatgen
data_ZnH24C30(NO2)2
_symmetry_space_group_name_H-M   'P 1'
_cell_length_a   7.56695176
_cell_length_b   22.13958411
_cell_length_c   22.13941284
_cell_angle_alpha   120.00031937
_cell_angle_beta   90.00001068
_cell_angle_gamma   90.00012474
_symmetry_Int_Tables_number   1
_chemical_formula_structural   ZnH24C30(NO2)2
_chemical_formula_sum   'Zn3 H72 C90 N6 O12'
_cell_volume   3212.07558399
_cell_formula_units_Z   3
loop_
 _symmetry_equiv_pos_site_id
 _symmetry_equiv_pos_as_xyz
  1  'x, y, z'
loop_
 _atom_site_type_symbol
 _atom_site_label
 _atom_site_symmetry_multiplicity
 _atom_site_fract_x
 _atom_site_fract_y
 _atom_site_fract_z
 _atom_site_occupancy
 _atom_site_pbe_bader_charge
 _atom_site_pbe_bader_spin_density
 _atom_site_pbe_cm5_charge
 _atom_site_pbe_ddec_charge
 _atom_site_pbe_ddec_spin_density
 _atom_site_pbe_ddec_sum_bond_order
 _atom_site_pbe_magmom
Zn  Zn0  1  0.99999857  0.00000041  0.49999994  1  1.33181  0  0.677766  0.795903  0  2.404893  0
Zn  Zn1  1  0.99999343  0.49999966  0.00000018  1  1.331038  0  0.677814  0.796005  0  2.404785  0
Zn  Zn2  1  0.99999620  0.50000020  0.50000099  1  1.330361  0  0.67778  0.795925  0  2.404886  0
H  H3  1  0.46175688  0.03124597  0.65113928  1  0.052933  0  0.096238  0.147375  0  0.999764  0
H  H4  1  0.32210396  0.98644444  0.67974196  1  0.032101  0  0.095022  0.140359  0  0.993619  0
H  H5  1  0.34328001  0.07899967  0.73123659  1  0.048625  0  0.090179  0.13639  0  0.999099  0
H  H6  1  0.09618993  0.13176263  0.72730451  1  0.021967  0  0.085102  0.109058  0  1.078573  0
H  H7  1  0.93746420  0.20146321  0.79139957  1  0.05698  0  0.101245  0.100675  0  1.015186  0
H  H8  1  0.72775655  0.29142479  0.86659220  1  0.071383  0  0.103035  0.103559  0  1.029359  0
H  H9  1  0.39987399  0.24242013  0.68812954  1  0.060586  0  0.100073  0.098618  0  1.010771  0
H  H10  1  0.61492461  0.15176957  0.61229434  1  0.091966  0  0.098358  0.099656  0  1.050085  0
H  H11  1  0.60889131  0.38982250  0.91211392  1  0.156446  0  0.1077  0.120738  0  1.050484  0
H  H12  1  0.38043500  0.47060669  0.99127341  1  0.129005  0  0.118648  0.087436  0  1.023419  0
H  H13  1  0.97922529  0.36880172  0.85017939  1  0.077111  0  0.117459  0.08964  0  0.999436  0
H  H14  1  0.18541921  0.27820769  0.76546719  1  0.099831  0  0.105304  0.110913  0  1.021616  0
H  H15  1  0.46175091  0.61989611  0.96875948  1  0.052119  0  0.096244  0.147328  0  0.999875  0
H  H16  1  0.32209228  0.69329680  0.01356044  1  0.04075  0  0.095055  0.140351  0  0.993655  0
H  H17  1  0.34327661  0.65223849  0.92100493  1  0.050248  0  0.090218  0.136438  0  0.999055  0
H  H18  1  0.09619013  0.59554027  0.86823746  1  0.021459  0  0.085079  0.109034  0  1.078504  0
H  H19  1  0.93746148  0.58993748  0.79854027  1  0.063422  0  0.10127  0.100723  0  1.015138  0
H  H20  1  0.72776138  0.57516499  0.70857380  1  0.068223  0  0.103015  0.103575  0  1.029281  0
H  H21  1  0.39988655  0.44569982  0.75757085  1  0.062745  0  0.100072  0.098678  0  1.010656  0
H  H22  1  0.61493490  0.46051760  0.84822466  1  0.084665  0  0.098401  0.099674  0  1.05002  0
H  H23  1  0.60890355  0.52227999  0.61016964  1  0.153694  0  0.107682  0.12067  0  1.050538  0
H  H24  1  0.38044561  0.52065810  0.52938739  1  0.124401  0  0.118638  0.087397  0  1.023497  0
H  H25  1  0.97923881  0.48137139  0.63119411  1  0.077782  0  0.117445  0.089575  0  0.999436  0
H  H26  1  0.18543308  0.48725220  0.72178751  1  0.08066  0  0.105247  0.11088  0  1.021595  0
H  H27  1  0.46174064  0.34886052  0.38010141  1  0.055129  0  0.096247  0.147357  0  0.999851  0
H  H28  1  0.32208456  0.32026028  0.30669929  1  0.032184  0  0.095034  0.140325  0  0.993668  0
H  H29  1  0.34326334  0.26876433  0.34775757  1  0.04897  0  0.090216  0.136482  0  0.999048  0
H  H30  1  0.09618369  0.27269512  0.40445648  1  0.023057  0  0.085086  0.109069  0  1.07857  0
H  H31  1  0.93745223  0.20860413  0.41006379  1  0.06564  0  0.101257  0.100735  0  1.015257  0
H  H32  1  0.72775065  0.13341121  0.42483552  1  0.078896  0  0.103023  0.103588  0  1.029225  0
H  H33  1  0.39987153  0.31187310  0.55429653  1  0.059756  0  0.100075  0.098635  0  1.010683  0
H  H34  1  0.61492402  0.38770847  0.53948037  1  0.143176  0  0.098395  0.099677  0  1.050133  0
H  H35  1  0.60889816  0.08789571  0.47772045  1  0.138803  0  0.107703  0.120756  0  1.050513  0
H  H36  1  0.38045189  0.00873144  0.47934192  1  0.119346  0  0.118642  0.087399  0  1.023474  0
H  H37  1  0.97922979  0.14981838  0.51862460  1  0.076475  0  0.117493  0.089634  0  0.999457  0
H  H38  1  0.18541636  0.23453212  0.51274185  1  0.090863  0  0.105312  0.110971  0  1.021572  0
H  H39  1  0.53825427  0.96875860  0.34885771  1  0.052994  0  0.096222  0.147322  0  0.999828  0
H  H40  1  0.67791247  0.01356064  0.32025814  1  0.031976  0  0.095036  0.140332  0  0.993665  0
H  H41  1  0.65673641  0.92100574  0.26876228  1  0.048737  0  0.090175  0.136417  0  0.999088  0
H  H42  1  0.90382385  0.86824485  0.27269591  1  0.021321  0  0.085129  0.109099  0  1.07858  0
H  H43  1  0.06254298  0.79853926  0.20860314  1  0.057307  0  0.101272  0.100723  0  1.015174  0
H  H44  1  0.27224534  0.70857339  0.13341300  1  0.071558  0  0.10298  0.103497  0  1.029303  0
H  H45  1  0.60013451  0.75758674  0.31187600  1  0.060519  0  0.100086  0.098597  0  1.0107  0
H  H46  1  0.38508521  0.84823932  0.38771009  1  0.0918  0  0.098351  0.099663  0  1.050164  0
H  H47  1  0.39109472  0.61017376  0.08789771  1  0.156525  0  0.107668  0.120699  0  1.050567  0
H  H48  1  0.61954311  0.52938966  0.00873362  1  0.128951  0  0.118631  0.087349  0  1.023505  0
H  H49  1  0.02076999  0.63119787  0.14981627  1  0.077089  0  0.117433  0.089533  0  0.999427  0
H  H50  1  0.81458533  0.72179578  0.23453182  1  0.099746  0  0.105313  0.110932  0  1.021621  0
H  H51  1  0.53824702  0.38009639  0.03124056  1  0.052044  0  0.096234  0.147377  0  0.999789  0
H  H52  1  0.67791225  0.30669816  0.98643893  1  0.040625  0  0.095023  0.140345  0  0.99369  0
H  H53  1  0.65673189  0.34775512  0.07899309  1  0.05011  0  0.090163  0.136443  0  0.99907  0
H  H54  1  0.90381441  0.40445464  0.13175926  1  0.02153  0  0.085071  0.109  0  1.078518  0
H  H55  1  0.06253909  0.41006293  0.20146089  1  0.063132  0  0.101279  0.100736  0  1.015126  0
H  H56  1  0.27224448  0.42483420  0.29142406  1  0.068152  0  0.103026  0.103572  0  1.029282  0
H  H57  1  0.60012195  0.55429331  0.24242043  1  0.062809  0  0.100075  0.098617  0  1.010763  0
H  H58  1  0.38506963  0.53947655  0.15176921  1  0.08488  0  0.098352  0.099651  0  1.050071  0
H  H59  1  0.39109966  0.47771299  0.38982358  1  0.153536  0  0.107684  0.120692  0  1.050565  0
H  H60  1  0.61954967  0.47933663  0.47060861  1  0.124671  0  0.118624  0.087397  0  1.023478  0
H  H61  1  0.02076308  0.51863004  0.36880964  1  0.077612  0  0.117459  0.089591  0  0.999433  0
H  H62  1  0.81457674  0.51274685  0.27821230  1  0.080633  0  0.105265  0.110874  0  1.021615  0
H  H63  1  0.53825068  0.65114319  0.61990097  1  0.055124  0  0.09623  0.147335  0  0.999856  0
H  H64  1  0.67791205  0.67974278  0.69330193  1  0.032362  0  0.095044  0.140353  0  0.993633  0
H  H65  1  0.65673458  0.73123855  0.65224293  1  0.048876  0  0.090176  0.136401  0  0.999116  0
H  H66  1  0.90381423  0.72730284  0.59554172  1  0.02311  0  0.085116  0.109088  0  1.078505  0
H  H67  1  0.06253909  0.79139763  0.58993873  1  0.065579  0  0.101277  0.100723  0  1.015152  0
H  H68  1  0.27223935  0.86659088  0.57516577  1  0.078978  0  0.103018  0.103543  0  1.029294  0
H  H69  1  0.60011979  0.68812996  0.44570469  1  0.059869  0  0.100068  0.098644  0  1.010766  0
H  H70  1  0.38507391  0.61229452  0.46052181  1  0.143257  0  0.098388  0.099654  0  1.050108  0
H  H71  1  0.39109844  0.91211059  0.52228295  1  0.138713  0  0.107711  0.120705  0  1.05051  0
H  H72  1  0.61955264  0.99126993  0.52065917  1  0.119411  0  0.118627  0.087396  0  1.023475  0
H  H73  1  0.02076020  0.85017753  0.48136842  1  0.076509  0  0.117444  0.08958  0  0.999436  0
H  H74  1  0.81456835  0.76546683  0.48725264  1  0.091238  0  0.105218  0.110858  0  1.021656  0
C  C75  1  0.33624136  0.03491491  0.67774949  1  -0.085915  0  -0.244823  -0.478211  0  3.921429  0
C  C76  1  0.18407970  0.04114364  0.63660784  1  0.774848  0  0.117298  0.489972  0  4.029989  0
C  C77  1  0.06620680  0.09763348  0.67244277  1  -0.048905  0  -0.169975  -0.471922  0  4.001531  0
C  C78  1  0.91108337  0.11171738  0.64624147  1  0.751394  0  0.114298  0.376395  0  4.094613  0
C  C79  1  0.79145680  0.16958172  0.69551452  1  -0.087132  0  -0.015325  0.00878  0  3.947018  0
C  C80  1  0.82128798  0.21013456  0.76765881  1  -0.036445  0  -0.087908  -0.110885  0  3.998005  0
C  C81  1  0.70181733  0.26131775  0.81071382  1  5.5e-05  0  -0.089745  -0.130482  0  3.982769  0
C  C82  1  0.54648004  0.27347912  0.78345494  1  -0.059945  0  -0.008934  0.060525  0  4.003372  0
C  C83  1  0.51736778  0.23345381  0.71117789  1  -0.036329  0  -0.087425  -0.122585  0  3.976076  0
C  C84  1  0.63799081  0.18277646  0.66820783  1  0.014772  0  -0.085806  -0.092387  0  3.963345  0
C  C85  1  0.41779168  0.32575495  0.83044457  1  -0.007341  0  0.010893  0.110265  0  3.98712  0
C  C86  1  0.47113039  0.38168897  0.89519058  1  -0.048675  0  -0.08445  -0.17967  0  3.936999  0
C  C87  1  0.34513926  0.42790007  0.93981745  1  0.388628  0  0.046888  0.096778  0  3.947512  0
C  C88  1  0.12019511  0.37075968  0.86135034  1  0.530066  0  0.046366  0.097709  0  3.95914  0
C  C89  1  0.23681918  0.32112173  0.81401374  1  -0.066352  0  -0.088843  -0.190434  0  3.956989  0
C  C90  1  0.33623676  0.64283541  0.96508959  1  -0.100598  0  -0.244878  -0.478146  0  3.921568  0
C  C91  1  0.18407891  0.59546249  0.95885690  1  0.782646  0  0.117176  0.489713  0  4.030208  0
C  C92  1  0.06620838  0.57480588  0.90236558  1  -0.052256  0  -0.170002  -0.471881  0  4.001574  0
C  C93  1  0.91108346  0.53452083  0.88828056  1  0.750206  0  0.114349  0.376383  0  4.094766  0
C  C94  1  0.79145929  0.52593020  0.83041631  1  -0.084858  0  -0.015295  0.008797  0  3.947  0
C  C95  1  0.82128778  0.55752316  0.78986502  1  -0.001071  0  -0.087933  -0.110888  0  3.997952  0
C  C96  1  0.70182484  0.54939197  0.73867978  1  -0.042426  0  -0.089823  -0.130678  0  3.982819  0
C  C97  1  0.54649135  0.50996738  0.72651316  1  -0.07292  0  -0.008932  0.060652  0  4.003372  0
C  C98  1  0.51737914  0.47771569  0.76653977  1  0.001621  0  -0.087444  -0.122823  0  3.976012  0
C  C99  1  0.63799710  0.48542603  0.81721809  1  -0.026066  0  -0.085828  -0.092243  0  3.963397  0
C  C100  1  0.41780410  0.50467884  0.67423597  1  0.004472  0  0.010761  0.110049  0  3.987543  0
C  C101  1  0.47114396  0.51349034  0.61830347  1  -0.05382  0  -0.084302  -0.179486  0  3.936998  0
C  C102  1  0.34515001  0.51190809  0.57209263  1  0.403913  0  0.04683  0.096795  0  3.947581  0
C  C103  1  0.12020601  0.49058313  0.62923381  1  0.497301  0  0.046373  0.097769  0  3.959304  0
C  C104  1  0.23683159  0.49288225  0.67887154  1  -0.020009  0  -0.088634  -0.190202  0  3.957008  0
C  C105  1  0.33622634  0.32225138  0.35716079  1  -0.08779  0  -0.244836  -0.478179  0  3.921567  0
C  C106  1  0.18407406  0.36339339  0.40453514  1  0.780691  0  0.117236  0.489846  0  4.03005  0
C  C107  1  0.06620350  0.32755743  0.42519306  1  -0.079195  0  -0.169988  -0.471935  0  4.00133  0
C  C108  1  0.91107749  0.35375880  0.46547851  1  0.780112  0  0.114296  0.376307  0  4.094585  0
C  C109  1  0.79144925  0.30448621  0.47406830  1  -0.098009  0  -0.015245  0.009018  0  3.947311  0
C  C110  1  0.82128004  0.23234375  0.44247654  1  0.005327  0  -0.087961  -0.111033  0  3.99828  0
C  C111  1  0.70181304  0.18928936  0.45060706  1  -0.048774  0  -0.089771  -0.130583  0  3.982662  0
C  C112  1  0.54647846  0.21654814  0.49003030  1  -0.070843  0  -0.008907  0.060651  0  4.003461  0
C  C113  1  0.51736526  0.28882509  0.52228072  1  -0.008441  0  -0.087394  -0.122616  0  3.976081  0
C  C114  1  0.63798728  0.33179475  0.51457190  1  -0.05751  0  -0.085904  -0.092507  0  3.963614  0
C  C115  1  0.41778977  0.16955941  0.49531809  1  0.00674  0  0.010864  0.110136  0  3.987459  0
C  C116  1  0.47113865  0.10481544  0.48650766  1  -0.047625  0  -0.084357  -0.17962  0  3.936977  0
C  C117  1  0.34514987  0.06018647  0.48809055  1  0.418242  0  0.046914  0.096921  0  3.947542  0
C  C118  1  0.12019957  0.13864973  0.50941350  1  0.504104  0  0.046313  0.097664  0  3.959145  0
C  C119  1  0.23681867  0.18598751  0.50711280  1  -0.039829  0  -0.088822  -0.190419  0  3.957174  0
C  C120  1  0.66377110  0.96509050  0.32224938  1  -0.086345  0  -0.244759  -0.478084  0  3.921403  0
C  C121  1  0.81592616  0.95886059  0.36339402  1  0.775207  0  0.117181  0.489864  0  4.029929  0
C  C122  1  0.93379906  0.90236913  0.32755800  1  -0.048197  0  -0.170086  -0.472081  0  4.001478  0
C  C123  1  0.08892248  0.88828658  0.35376065  1  0.751566  0  0.114234  0.37632  0  4.094563  0
C  C124  1  0.20855302  0.83042348  0.30448727  1  -0.086803  0  -0.015278  0.008861  0  3.947274  0
C  C125  1  0.17872052  0.78986908  0.23234455  1  -0.037304  0  -0.087932  -0.110921  0  3.998202  0
C  C126  1  0.29818588  0.73868361  0.18929091  1  0.00012  0  -0.089686  -0.130429  0  3.982715  0
C  C127  1  0.45352317  0.72652269  0.21655024  1  -0.059662  0  -0.009018  0.060539  0  4.003497  0
C  C128  1  0.48264072  0.76655171  0.28882629  1  -0.036721  0  -0.087398  -0.122516  0  3.975917  0
C  C129  1  0.36202033  0.81723171  0.33179640  1  0.01497  0  -0.08581  -0.092489  0  3.963487  0
C  C130  1  0.58220625  0.67424420  0.16956056  1  -0.007558  0  0.010879  0.110158  0  3.987479  0
C  C131  1  0.52885696  0.61830828  0.10481735  1  -0.049001  0  -0.084329  -0.179595  0  3.937143  0
C  C132  1  0.65484677  0.57209687  0.06018808  1  0.389164  0  0.046925  0.096993  0  3.947602  0
C  C133  1  0.87979885  0.62923918  0.13864876  1  0.529736  0  0.046408  0.097884  0  3.959095  0
C  C134  1  0.76318007  0.67887841  0.18598769  1  -0.065845  0  -0.088857  -0.190475  0  3.957131  0
C  C135  1  0.66376513  0.35715768  0.03490895  1  -0.100426  0  -0.244775  -0.478236  0  3.921542  0
C  C136  1  0.81591505  0.40453352  0.04114143  1  0.78259  0  0.117285  0.489935  0  4.029952  0
C  C137  1  0.93379087  0.42519162  0.09763217  1  -0.052356  0  -0.17  -0.471832  0  4.001451  0
C  C138  1  0.08891446  0.46547687  0.11171790  1  0.750379  0  0.11426  0.376195  0  4.094801  0
C  C139  1  0.20854392  0.47406705  0.16958170  1  -0.085089  0  -0.015303  0.008926  0  3.947041  0
C  C140  1  0.17871544  0.44247551  0.21013337  1  -0.000622  0  -0.087957  -0.11097  0  3.998172  0
C  C141  1  0.29818234  0.45060579  0.26131770  1  -0.042331  0  -0.089792  -0.130606  0  3.982786  0
C  C142  1  0.45351847  0.49002820  0.27348109  1  -0.07348  0  -0.008896  0.06069  0  4.003366  0
C  C143  1  0.48262936  0.52227891  0.23345455  1  0.001927  0  -0.087423  -0.122617  0  3.976135  0
C  C144  1  0.36200875  0.51456974  0.18277687  1  -0.026037  0  -0.085818  -0.092419  0  3.963374  0
C  C145  1  0.58220440  0.49531576  0.32575835  1  0.00478  0  0.010898  0.110214  0  3.987442  0
C  C146  1  0.52885926  0.48650258  0.38169073  1  -0.05393  0  -0.08442  -0.17967  0  3.937122  0
C  C147  1  0.65485056  0.48808663  0.42790338  1  0.403876  0  0.046987  0.096958  0  3.947606  0
C  C148  1  0.87979721  0.50941592  0.37076600  1  0.497193  0  0.046374  0.097801  0  3.959018  0
C  C149  1  0.76317559  0.50711402  0.32112653  1  -0.020332  0  -0.088775  -0.190373  0  3.95709  0
C  C150  1  0.66377027  0.67775124  0.64283997  1  -0.087855  0  -0.244805  -0.47814  0  3.921537  0
C  C151  1  0.81592386  0.63660806  0.59546498  1  0.780446  0  0.117226  0.489843  0  4.030041  0
C  C152  1  0.93379310  0.67244091  0.57480656  1  -0.078691  0  -0.169999  -0.471878  0  4.001527  0
C  C153  1  0.08891779  0.64623992  0.53452254  1  0.779863  0  0.114213  0.376155  0  4.094759  0
C  C154  1  0.20854339  0.69551374  0.52593241  1  -0.098361  0  -0.015275  0.008908  0  3.947026  0
C  C155  1  0.17871260  0.76765691  0.55752436  1  0.005673  0  -0.087988  -0.111032  0  3.998145  0
C  C156  1  0.29817828  0.81071157  0.54939358  1  -0.048875  0  -0.089745  -0.13048  0  3.982777  0
C  C157  1  0.45351286  0.78345357  0.50996956  1  -0.070801  0  -0.008896  0.060697  0  4.003384  0
C  C158  1  0.48262606  0.71117616  0.47771869  1  -0.007767  0  -0.08747  -0.122819  0  3.976223  0
C  C159  1  0.36201064  0.66820741  0.48542841  1  -0.058235  0  -0.085817  -0.092248  0  3.963462  0
C  C160  1  0.58220023  0.83044308  0.50468099  1  0.006892  0  0.010816  0.11006  0  3.987584  0
C  C161  1  0.52885663  0.89518781  0.51349426  1  -0.04828  0  -0.084418  -0.179624  0  3.937019  0
C  C162  1  0.65485070  0.93981498  0.51190958  1  0.4183  0  0.046903  0.096897  0  3.947592  0
C  C163  1  0.87979440  0.86134824  0.49058107  1  0.504231  0  0.046402  0.097821  0  3.959264  0
C  C164  1  0.76317000  0.81401163  0.49288240  1  -0.040198  0  -0.088652  -0.190266  0  3.957204  0
N  N165  1  0.17274089  0.42314693  0.92357702  1  -1.238068  0  -0.32314  -0.226  0  3.534123  0
N  N166  1  0.17275030  0.50042421  0.57685002  1  -1.234391  0  -0.323161  -0.22605  0  3.534247  0
N  N167  1  0.17275025  0.07642413  0.49957434  1  -1.237915  0  -0.323211  -0.226074  0  3.534128  0
N  N168  1  0.82724646  0.57685270  0.07642493  1  -1.238349  0  -0.323212  -0.226137  0  3.534242  0
N  N169  1  0.82724895  0.49957334  0.42315038  1  -1.233939  0  -0.323237  -0.226149  0  3.534181  0
N  N170  1  0.82724768  0.92357409  0.50042360  1  -1.237486  0  -0.323194  -0.226099  0  3.534339  0
O  O171  1  0.85868831  0.07845450  0.58279591  1  -1.148195  0  -0.301919  -0.483607  0  2.352205  0
O  O172  1  0.17357123  0.99351206  0.57256670  1  -1.16095  0  -0.304712  -0.496629  0  2.273798  0
O  O173  1  0.85868843  0.50433778  0.92154272  1  -1.140838  0  -0.301888  -0.483582  0  2.352191  0
O  O174  1  0.17356976  0.57905178  0.00648758  1  -1.156394  0  -0.304623  -0.496468  0  2.273863  0
O  O175  1  0.85868937  0.41720516  0.49566133  1  -1.158308  0  -0.30191  -0.48355  0  2.352006  0
O  O176  1  0.17356013  0.42743209  0.42094452  1  -1.159088  0  -0.304703  -0.496624  0  2.27397  0
O  O177  1  0.14131358  0.92154849  0.41720628  1  -1.148285  0  -0.301858  -0.483484  0  2.352091  0
O  O178  1  0.82642934  0.00648958  0.42743413  1  -1.160859  0  -0.304602  -0.496557  0  2.273999  0
O  O179  1  0.14130421  0.49566302  0.07845623  1  -1.140778  0  -0.301843  -0.483507  0  2.35221  0
O  O180  1  0.82641892  0.42094682  0.99351178  1  -1.15634  0  -0.304698  -0.496634  0  2.273919  0
O  O181  1  0.14131252  0.58279505  0.50433912  1  -1.158321  0  -0.301841  -0.483449  0  2.352049  0
O  O182  1  0.82642855  0.57256696  0.57905529  1  -1.159254  0  -0.304663  -0.496569  0  2.273889  0
