# generated using pymatgen
data_LaH28C42S3NO7
_symmetry_space_group_name_H-M   'P 1'
_cell_length_a   8.16601309
_cell_length_b   19.94054564
_cell_length_c   19.94056997
_cell_angle_alpha   73.64171349
_cell_angle_beta   81.88264006
_cell_angle_gamma   81.88263847
_symmetry_Int_Tables_number   1
_chemical_formula_structural   LaH28C42S3NO7
_chemical_formula_sum   'La2 H56 C84 S6 N2 O14'
_cell_volume   3066.72603190
_cell_formula_units_Z   2
loop_
 _symmetry_equiv_pos_site_id
 _symmetry_equiv_pos_as_xyz
  1  'x, y, z'
loop_
 _atom_site_type_symbol
 _atom_site_label
 _atom_site_symmetry_multiplicity
 _atom_site_fract_x
 _atom_site_fract_y
 _atom_site_fract_z
 _atom_site_occupancy
 _atom_site_pbe_bader_charge
 _atom_site_pbe_bader_spin_density
 _atom_site_pbe_cm5_charge
 _atom_site_pbe_ddec_charge
 _atom_site_pbe_ddec_spin_density
 _atom_site_pbe_ddec_sum_bond_order
 _atom_site_pbe_magmom
La  La0  1  0.72838563  0.98495903  0.00934647  1  2.238773  0  1.384391  1.869329  0  2.340424  0
La  La1  1  0.22838598  0.00934540  0.98495991  1  2.23874  0  1.384407  1.869357  0  2.3404  0
H  H2  1  0.21654062  0.58603277  0.57626315  1  0.032785  0  0.096787  0.094309  0  1.041934  0
H  H3  1  0.71653790  0.57626295  0.58603598  1  0.033042  0  0.096832  0.094356  0  1.041927  0
H  H4  1  0.89675379  0.55232520  0.76940128  1  0.052733  0  0.096553  0.092164  0  1.057291  0
H  H5  1  0.39675282  0.76940208  0.55232536  1  0.052716  0  0.096543  0.092094  0  1.057346  0
H  H6  1  0.84985245  0.75126929  0.61506236  1  0.040914  0  0.097402  0.093027  0  1.048281  0
H  H7  1  0.34985204  0.61506633  0.75127117  1  0.041119  0  0.097389  0.092958  0  1.048334  0
H  H8  1  0.02519297  0.73451428  0.01729113  1  0.112432  0  0.113605  0.131146  0  0.978533  0
H  H9  1  0.52519142  0.01729234  0.73451305  1  0.112401  0  0.113625  0.131181  0  0.978485  0
H  H10  1  0.67392439  0.78576859  0.67512113  1  0.077051  0  0.098999  0.096835  0  1.012218  0
H  H11  1  0.17392332  0.67512317  0.78576827  1  0.077108  0  0.098985  0.096811  0  1.012162  0
H  H12  1  0.45731846  0.82904629  0.75392814  1  0.07719  0  0.098011  0.102611  0  1.011418  0
H  H13  1  0.95731660  0.75393042  0.82904556  1  0.077265  0  0.09802  0.102623  0  1.011391  0
H  H14  1  0.76044006  0.59295329  0.83740031  1  0.051963  0  0.095116  0.091954  0  1.027846  0
H  H15  1  0.26043626  0.83740134  0.59295277  1  0.052037  0  0.095111  0.09193  0  1.027844  0
H  H16  1  0.23538706  0.63986400  0.47434518  1  0.070816  0  0.0995  0.09691  0  1.009867  0
H  H17  1  0.73538456  0.47434765  0.63986681  1  0.07085  0  0.099523  0.096949  0  1.009856  0
H  H18  1  0.54331563  0.63677086  0.91630969  1  0.059179  0  0.096911  0.09612  0  1.005884  0
H  H19  1  0.04331041  0.91631097  0.63676996  1  0.059202  0  0.096905  0.096142  0  1.005887  0
H  H20  1  0.71754727  0.15404456  0.75522396  1  0.121818  0  0.113759  0.131615  0  0.979155  0
H  H21  1  0.21754798  0.75522611  0.15405166  1  0.121992  0  0.113738  0.131589  0  0.979223  0
H  H22  1  0.59023730  0.27735533  0.67899683  1  0.057039  0  0.099985  0.111584  0  1.005852  0
H  H23  1  0.09022700  0.67900052  0.27736021  1  0.057035  0  0.099988  0.111571  0  1.005824  0
H  H24  1  0.17902718  0.00445475  0.18362873  1  0.095143  0  0.107256  0.11629  0  1.021918  0
H  H25  1  0.67902649  0.18362806  0.00445347  1  0.095132  0  0.107217  0.116205  0  1.021895  0
H  H26  1  0.05023405  0.94636392  0.31372240  1  0.060847  0  0.09282  0.09704  0  1.042128  0
H  H27  1  0.55023641  0.31372284  0.94636612  1  0.060406  0  0.092839  0.097049  0  1.042172  0
H  H28  1  0.26794304  0.65974738  0.95767165  1  0.016569  0  0.098316  0.107472  0  1.011221  0
H  H29  1  0.76794436  0.95767237  0.65974697  1  0.01656  0  0.098294  0.107466  0  1.01122  0
H  H30  1  0.33303376  0.71923588  0.36280927  1  0.044712  0  0.098146  0.100254  0  1.007428  0
H  H31  1  0.83302729  0.36281114  0.71923879  1  0.044814  0  0.098145  0.100167  0  1.007469  0
H  H32  1  0.97230766  0.81677950  0.54202502  1  0.056116  0  0.097399  0.094415  0  1.029964  0
H  H33  1  0.47230931  0.54202663  0.81678187  1  0.056031  0  0.097397  0.094413  0  1.029967  0
H  H34  1  0.89403372  0.08690758  0.10457566  1  0.16503  0  0.133445  0.066442  0  1.034776  0
H  H35  1  0.39403150  0.10457454  0.08690595  1  0.165032  0  0.133409  0.066435  0  1.034807  0
H  H36  1  0.98763055  0.11326992  0.18846566  1  0.069432  0  0.113036  0.127387  0  1.006741  0
H  H37  1  0.48763059  0.18846448  0.11327022  1  0.069426  0  0.113058  0.127399  0  1.006763  0
H  H38  1  0.92475541  0.06382679  0.27583680  1  0.047327  0  0.10474  0.117748  0  0.990939  0
H  H39  1  0.42475244  0.27583685  0.06382920  1  0.047347  0  0.104762  0.117799  0  0.990945  0
H  H40  1  0.83201298  0.15169935  0.24340463  1  0.053446  0  0.100511  0.106454  0  0.984606  0
H  H41  1  0.33200967  0.24340275  0.15170054  1  0.053461  0  0.100528  0.106463  0  0.984612  0
H  H42  1  0.52955147  0.03336831  0.22149933  1  0.118328  0  0.114011  0.136095  0  1.017557  0
H  H43  1  0.02955154  0.22150014  0.03336728  1  0.118357  0  0.114001  0.136094  0  1.017576  0
H  H44  1  0.53895940  0.09863312  0.26690124  1  0.019695  0  0.099068  0.103123  0  0.98708  0
H  H45  1  0.03895929  0.26690113  0.09863241  1  0.019717  0  0.09906  0.103127  0  0.987068  0
H  H46  1  0.64634399  0.01272007  0.29541133  1  0.048376  0  0.106173  0.117411  0  0.97926  0
H  H47  1  0.14634503  0.29541161  0.01272039  1  0.048368  0  0.10619  0.117435  0  0.979262  0
H  H48  1  0.06824411  0.89577599  0.43031056  1  0.026456  0  0.094098  0.092675  0  1.009446  0
H  H49  1  0.56824150  0.43031248  0.89577928  1  0.026383  0  0.094091  0.092645  0  1.009452  0
H  H50  1  0.09568963  0.48337968  0.80973297  1  0.076953  0  0.09716  0.096419  0  1.005832  0
H  H51  1  0.59569478  0.80973246  0.48338540  1  0.076856  0  0.097145  0.096414  0  1.005857  0
H  H52  1  0.24112854  0.36549669  0.85027080  1  0.015377  0  0.090201  0.085102  0  1.032721  0
H  H53  1  0.74112548  0.85027263  0.36550114  1  0.015353  0  0.090213  0.08515  0  1.032804  0
H  H54  1  0.36599591  0.35612196  0.63568304  1  0.061315  0  0.098348  0.09664  0  1.004824  0
H  H55  1  0.86598092  0.63568719  0.35612001  1  0.061424  0  0.098416  0.096697  0  1.004838  0
H  H56  1  0.21875955  0.47402263  0.59498493  1  0.012521  0  0.096214  0.09374  0  1.011685  0
H  H57  1  0.71875367  0.59498582  0.47402188  1  0.012505  0  0.096194  0.093734  0  1.011728  0
C  C58  1  0.03510376  0.67372561  0.58607480  1  -0.014938  0  -0.009029  0.069728  0  4.013354  0
C  C59  1  0.53510639  0.58607703  0.67372780  1  -0.014481  0  -0.009102  0.069768  0  4.013122  0
C  C60  1  0.11113397  0.60470299  0.60864256  1  -0.008518  0  -0.090442  -0.17841  0  3.93987  0
C  C61  1  0.61113584  0.60864422  0.60470490  1  -0.008921  0  -0.090474  -0.178466  0  3.93988  0
C  C62  1  0.06285200  0.56073264  0.67482446  1  -0.024414  0  -0.012531  0.069653  0  4.032294  0
C  C63  1  0.56285121  0.67482485  0.56073467  1  -0.024629  0  -0.012551  0.069571  0  4.032218  0
C  C64  1  0.93762220  0.58737829  0.71914282  1  0.020876  0  -0.09008  -0.17815  0  3.93535  0
C  C65  1  0.43762367  0.71914458  0.58737960  1  0.020858  0  -0.090039  -0.177962  0  3.935165  0
C  C66  1  0.86133633  0.65653925  0.69945521  1  -0.065314  0  -0.005317  0.080554  0  4.005793  0
C  C67  1  0.36133738  0.69945742  0.65654022  1  -0.064936  0  -0.005382  0.080367  0  4.005891  0
C  C68  1  0.91012506  0.69810606  0.63208127  1  -0.040917  0  -0.083669  -0.160031  0  3.917559  0
C  C69  1  0.41012625  0.63208460  0.69810819  1  -0.041589  0  -0.083559  -0.159815  0  3.917306  0
C  C70  1  0.11223259  0.82763416  0.94267942  1  -0.159083  0  -0.023371  -0.125576  0  4.002826  0
C  C71  1  0.61223085  0.94267959  0.82763253  1  -0.159087  0  -0.023351  -0.125478  0  4.002862  0
C  C72  1  0.11503992  0.75595556  0.97340651  1  -0.026114  0  -0.094173  -0.096663  0  4.006297  0
C  C73  1  0.61504063  0.97340750  0.75595495  1  -0.026138  0  -0.094188  -0.096711  0  4.006342  0
C  C74  1  0.34068202  0.75868243  0.88672103  1  -0.173625  0  -0.011282  -0.013482  0  4.010237  0
C  C75  1  0.84068292  0.88672122  0.75868267  1  -0.173637  0  -0.011286  -0.01345  0  4.010257  0
C  C76  1  0.64721256  0.75191355  0.72779846  1  -0.101983  0  -0.086035  -0.10783  0  3.975497  0
C  C77  1  0.14721245  0.72780004  0.75191246  1  -0.102023  0  -0.086044  -0.107882  0  3.975574  0
C  C78  1  0.52379702  0.77703742  0.77269006  1  0.032369  0  -0.089311  -0.124795  0  3.986873  0
C  C79  1  0.02379776  0.77269067  0.77703670  1  0.032329  0  -0.089326  -0.124792  0  3.986839  0
C  C80  1  0.73366084  0.68437813  0.74813699  1  0.032651  0  -0.007409  0.063848  0  3.972959  0
C  C81  1  0.23366027  0.74813906  0.68437784  1  0.032622  0  -0.007322  0.06402  0  3.9728  0
C  C82  1  0.47867701  0.73551280  0.84084744  1  -0.036344  0  -0.01466  0.069726  0  4.06924  0
C  C83  1  0.97867728  0.84084852  0.73551340  1  -0.036393  0  -0.014648  0.069738  0  4.069165  0
C  C84  1  0.69369521  0.64455692  0.81761668  1  -0.099324  0  -0.095092  -0.128494  0  4.006899  0
C  C85  1  0.19368909  0.81761945  0.64455585  1  -0.099394  0  -0.095149  -0.128524  0  4.006676  0
C  C86  1  0.09218594  0.72108053  0.51763902  1  -0.002146  0  -0.003005  0.073225  0  3.966992  0
C  C87  1  0.59218826  0.51764126  0.72108328  1  -0.002057  0  -0.003002  0.073062  0  3.967151  0
C  C88  1  0.14611749  0.48875341  0.69892711  1  0.013619  0  -0.00922  0.068181  0  3.989235  0
C  C89  1  0.64611487  0.69892831  0.48875560  1  0.013586  0  -0.009239  0.068239  0  3.98932  0
C  C90  1  0.19721239  0.69599015  0.46555159  1  -0.017377  0  -0.086636  -0.112648  0  3.973385  0
C  C91  1  0.69721275  0.46555270  0.69599248  1  -0.017334  0  -0.086606  -0.112603  0  3.973374  0
C  C92  1  0.31646838  0.35167794  0.74624285  1  -0.020687  0  -0.013714  0.075267  0  4.055172  0
C  C93  1  0.81645759  0.74624538  0.35167860  1  -0.020646  0  -0.013678  0.07719  0  4.052344  0
C  C94  1  0.41040156  0.28309870  0.76986911  1  -0.222761  0  -0.015188  -0.017381  0  4.010874  0
C  C95  1  0.91039401  0.76987186  0.28309983  1  -0.222752  0  -0.015225  -0.01794  0  4.01055  0
C  C96  1  0.56944690  0.66913859  0.86273290  1  -0.035033  0  -0.096707  -0.132416  0  3.996096  0
C  C97  1  0.06944354  0.86273543  0.66913886  1  -0.0351  0  -0.096666  -0.132425  0  3.995965  0
C  C98  1  0.61130079  0.18679900  0.77272101  1  -0.030797  0  -0.094777  -0.101913  0  4.014696  0
C  C99  1  0.11129598  0.77272396  0.18680225  1  -0.030553  0  -0.094742  -0.101876  0  4.014726  0
C  C100  1  0.53065297  0.16733357  0.84020814  1  -0.199245  0  -0.019837  -0.104268  0  3.948675  0
C  C101  1  0.03065090  0.84021172  0.16733597  1  -0.199283  0  -0.019846  -0.104188  0  3.948568  0
C  C102  1  0.54242019  0.25197523  0.73262288  1  0.035381  0  -0.114394  -0.169961  0  4.046754  0
C  C103  1  0.04241298  0.73262556  0.25197864  1  0.035263  0  -0.114427  -0.17005  0  4.046965  0
C  C104  1  0.20608321  0.81383194  0.38701162  1  -0.034779  0  -0.015983  0.073778  0  4.054873  0
C  C105  1  0.70608266  0.38701377  0.81383554  1  -0.034914  0  -0.015998  0.073659  0  4.055006  0
C  C106  1  0.23200312  0.95663365  0.21891915  1  -0.047703  0  -0.103781  -0.117121  0  4.04266  0
C  C107  1  0.73200475  0.21891888  0.95663400  1  -0.047825  0  -0.103773  -0.116956  0  4.042623  0
C  C108  1  0.25204368  0.86173691  0.31894006  1  -0.169934  0  -0.012933  -0.010447  0  4.005849  0
C  C109  1  0.75204311  0.31894233  0.86173913  1  -0.170055  0  -0.012944  -0.010396  0  4.005905  0
C  C110  1  0.16490822  0.92572299  0.28799576  1  -0.014646  0  -0.12075  -0.185328  0  4.08796  0
C  C111  1  0.66490630  0.28799621  0.92572385  1  -0.014161  0  -0.120796  -0.18545  0  4.088021  0
C  C112  1  0.37226052  0.91699540  0.19736715  1  -0.196617  0  -0.023343  -0.120141  0  3.982643  0
C  C113  1  0.87225708  0.19736701  0.91699476  1  -0.196859  0  -0.023289  -0.120111  0  3.982637  0
C  C114  1  0.24522639  0.71686985  0.94205228  1  0.002388  0  -0.112268  -0.165402  0  4.037826  0
C  C115  1  0.74522783  0.94205422  0.71686889  1  0.002394  0  -0.112289  -0.165456  0  4.037797  0
C  C116  1  0.25376329  0.74095762  0.40215837  1  -0.064186  0  -0.089498  -0.120605  0  3.977895  0
C  C117  1  0.75376176  0.40215972  0.74096173  1  -0.064202  0  -0.089491  -0.120486  0  3.977913  0
C  C118  1  0.04846673  0.79423163  0.50272971  1  -0.029463  0  -0.092037  -0.12538  0  4.002425  0
C  C119  1  0.54846598  0.50273273  0.79423309  1  -0.029524  0  -0.092052  -0.12536  0  4.002551  0
C  C120  1  0.77429963  0.07224128  0.13469749  1  1.346297  0  0.185362  0.30851  0  4.079185  0
C  C121  1  0.27429753  0.13469745  0.07224116  1  1.346341  0  0.185426  0.30853  0  4.079189  0
C  C122  1  0.88156364  0.10275679  0.22887189  1  0.280498  0  -0.125794  -0.27046  0  3.936916  0
C  C123  1  0.38156186  0.22887078  0.10275792  1  0.280366  0  -0.125861  -0.270591  0  3.937027  0
C  C124  1  0.60883905  0.05423658  0.24905772  1  0.277917  0  -0.130257  -0.266556  0  3.911718  0
C  C125  1  0.10883940  0.24905788  0.05423579  1  0.277899  0  -0.13025  -0.266614  0  3.911751  0
C  C126  1  0.10371087  0.83936900  0.43934936  1  -0.018556  0  -0.096673  -0.129087  0  4.000079  0
C  C127  1  0.60370706  0.43935173  0.83937169  1  -0.018404  0  -0.096673  -0.12901  0  4.000106  0
C  C128  1  0.47238216  0.93229066  0.12876592  1  1.602648  0  0.202316  0.599029  0  4.25268  0
C  C129  1  0.97237985  0.12876554  0.93228969  1  1.603012  0  0.202313  0.599031  0  4.252619  0
C  C130  1  0.15221444  0.45550851  0.77095778  1  -0.04147  0  -0.091381  -0.117679  0  3.988973  0
C  C131  1  0.65221531  0.77095855  0.45551153  1  -0.041439  0  -0.091325  -0.117616  0  3.989169  0
C  C132  1  0.23462106  0.38876780  0.79407030  1  -0.012434  0  -0.097289  -0.134094  0  4.021966  0
C  C133  1  0.73461295  0.79407271  0.38876936  1  -0.012523  0  -0.097355  -0.13488  0  4.021712  0
C  C134  1  0.30796481  0.38422712  0.67409775  1  -0.104452  0  -0.093312  -0.122054  0  3.986345  0
C  C135  1  0.80795040  0.67410068  0.38422657  1  -0.104453  0  -0.093331  -0.122705  0  3.985888  0
C  C136  1  0.22480960  0.45097015  0.65121282  1  0.04254  0  -0.095152  -0.129471  0  4.000879  0
C  C137  1  0.72480047  0.65121391  0.45097084  1  0.042649  0  -0.09514  -0.129517  0  4.00108  0
C  C138  1  0.57443658  0.10403587  0.89605551  1  1.559354  0  0.19808  0.584559  0  4.256782  0
C  C139  1  0.07444138  0.89605759  0.10403842  1  1.559494  0  0.198052  0.584554  0  4.256686  0
C  C140  1  0.99748419  0.88308578  0.96430054  1  1.551878  0  0.192452  0.567945  0  4.308996  0
C  C141  1  0.49748192  0.96429933  0.88308470  1  1.551873  0  0.192425  0.567852  0  4.309159  0
S  S142  1  0.36960028  0.22937008  0.85342732  1  0.24606  0  0.105657  0.148888  0  2.964018  0
S  S143  1  0.86958847  0.85343143  0.22937051  1  0.245892  0  0.105664  0.148804  0  2.964028  0
S  S144  1  0.42133756  0.84204489  0.26251151  1  0.253227  0  0.10801  0.145547  0  2.895331  0
S  S145  1  0.92133750  0.26251355  0.84204583  1  0.253264  0  0.108018  0.145518  0  2.89526  0
S  S146  1  0.26859714  0.84629487  0.87495596  1  0.258048  0  0.127652  0.171234  0  2.93233  0
S  S147  1  0.76859805  0.87495739  0.84629415  1  0.258096  0  0.12766  0.171192  0  2.932385  0
N  N148  1  0.75520555  0.07655712  0.20165510  1  -1.207619  0  -0.286325  0.016411  0  3.718452  0
N  N149  1  0.25520463  0.20165491  0.07655683  1  -1.207539  0  -0.28632  0.016526  0  3.718497  0
O  O150  1  0.66499316  0.05379810  0.10783154  1  -1.187914  0  -0.324439  -0.491617  0  2.365395  0
O  O151  1  0.16499308  0.10783198  0.05379679  1  -1.187944  0  -0.32447  -0.49165  0  2.365402  0
O  O152  1  0.61123719  0.89701831  0.12005834  1  -1.164542  0  -0.3512  -0.561058  0  2.189155  0
O  O153  1  0.11123602  0.12005912  0.89701850  1  -1.164512  0  -0.351191  -0.561056  0  2.189116  0
O  O154  1  0.41720089  0.98451120  0.07943690  1  -1.21157  0  -0.41752  -0.67073  0  2.373684  0
O  O155  1  0.91719827  0.07943628  0.98450932  1  -1.211589  0  -0.417556  -0.670719  0  2.3736  0
O  O156  1  0.47976695  0.08956404  0.95501471  1  -1.21681  0  -0.385742  -0.674319  0  2.257251  0
O  O157  1  0.97977575  0.95501674  0.08956538  1  -1.217024  0  -0.385717  -0.67431  0  2.257239  0
O  O158  1  0.70806335  0.06556235  0.88544508  1  -1.167466  0  -0.35454  -0.562879  0  2.178196  0
O  O159  1  0.20806920  0.88544525  0.06556471  1  -1.167444  0  -0.354549  -0.562894  0  2.178127  0
O  O160  1  0.02822773  0.94813723  0.94087236  1  -1.204022  0  -0.401846  -0.66112  0  2.25929  0
O  O161  1  0.52822502  0.94087037  0.94813684  1  -1.203978  0  -0.401864  -0.661149  0  2.259269  0
O  O162  1  0.86830203  0.86582628  0.00583650  1  -1.163266  0  -0.363549  -0.560838  0  2.187751  0
O  O163  1  0.36829945  0.00583492  0.86582530  1  -1.163297  0  -0.363504  -0.56078  0  2.187851  0
