# generated using pymatgen
data_AlH30C45(NO2)3
_symmetry_space_group_name_H-M   'P 1'
_cell_length_a   4.01332969
_cell_length_b   23.55868756
_cell_length_c   23.53137343
_cell_angle_alpha   60.05589923
_cell_angle_beta   87.28316985
_cell_angle_gamma   87.28007724
_symmetry_Int_Tables_number   1
_chemical_formula_structural   AlH30C45(NO2)3
_chemical_formula_sum   'Al1 H30 C45 N3 O6'
_cell_volume   1924.97725937
_cell_formula_units_Z   1
loop_
 _symmetry_equiv_pos_site_id
 _symmetry_equiv_pos_as_xyz
  1  'x, y, z'
loop_
 _atom_site_type_symbol
 _atom_site_label
 _atom_site_symmetry_multiplicity
 _atom_site_fract_x
 _atom_site_fract_y
 _atom_site_fract_z
 _atom_site_occupancy
 _atom_site_pbe_bader_charge
 _atom_site_pbe_bader_spin_density
 _atom_site_pbe_cm5_charge
 _atom_site_pbe_ddec_charge
 _atom_site_pbe_ddec_spin_density
 _atom_site_pbe_ddec_sum_bond_order
 _atom_site_pbe_magmom
Al  Al0  1  0.99900380  0.49967086  0.49976934  1  2.505905  0  0.428485  1.601179  0  2.565594  0
H  H1  1  0.63791024  0.31905977  0.67808836  1  0.082544  0  0.107764  0.109445  0  0.983966  0
H  H2  1  0.62702154  0.25565984  0.79862213  1  0.078727  0  0.100496  0.102836  0  1.028988  0
H  H3  1  0.83706999  0.16574647  0.01808277  1  0.030441  0  0.098997  0.108617  0  1.010819  0
H  H4  1  0.31772627  0.68460922  0.32554225  1  0.067529  0  0.108095  0.110462  0  0.984774  0
H  H5  1  0.37805262  0.80394030  0.26454973  1  0.103313  0  0.099505  0.097723  0  1.016198  0
H  H6  1  0.22439630  0.89322268  0.23500098  1  0.045712  0  0.098247  0.095998  0  1.019717  0
H  H7  1  0.20308308  0.01217985  0.17169648  1  0.054041  0  0.096348  0.101191  0  1.012148  0
H  H8  1  0.48776885  0.10401090  0.10705112  1  0.064939  0  0.096135  0.093362  0  1.030241  0
H  H9  1  0.64925613  0.67729429  0.49998254  1  0.083613  0  0.10793  0.110575  0  0.985188  0
H  H10  1  0.63803480  0.79737353  0.44392920  1  0.083228  0  0.100305  0.1027  0  1.038124  0
H  H11  1  0.81250978  0.01813468  0.31412471  1  0.030165  0  0.099364  0.107977  0  1.013612  0
H  H12  1  0.36504563  0.32591248  0.49121174  1  0.088253  0  0.107625  0.109627  0  0.986131  0
H  H13  1  0.42078475  0.26461299  0.43195304  1  0.03773  0  0.098871  0.095932  0  1.017423  0
H  H14  1  0.23871449  0.23886797  0.37320701  1  0.054444  0  0.098458  0.09642  0  1.018873  0
H  H15  1  0.20101035  0.17516558  0.31827461  1  0.055283  0  0.096355  0.10208  0  1.009729  0
H  H16  1  0.49901281  0.10720237  0.28819792  1  0.080757  0  0.096383  0.094318  0  1.029752  0
H  H17  1  0.71940298  0.49842006  0.31988741  1  0.06474  0  0.107385  0.108926  0  0.985058  0
H  H18  1  0.70299177  0.44243178  0.25581646  1  0.036288  0  0.100055  0.101839  0  1.035145  0
H  H19  1  0.85046415  0.30983757  0.16306890  1  0.009025  0  0.098641  0.107905  0  1.01525  0
H  H20  1  0.33519454  0.49312807  0.68462497  1  0.101125  0  0.107468  0.108451  0  0.985152  0
H  H21  1  0.39052623  0.43335457  0.80465081  1  0.029132  0  0.098969  0.096343  0  1.013392  0
H  H22  1  0.18116637  0.37127515  0.89370848  1  0.038544  0  0.098134  0.096101  0  1.015204  0
H  H23  1  0.16121556  0.31518324  0.01360495  1  0.044852  0  0.095318  0.099868  0  1.012992  0
H  H24  1  0.49611473  0.28788547  0.10395714  1  0.085745  0  0.095633  0.093043  0  1.030125  0
H  H25  1  0.06718495  0.39446868  0.24234273  1  0.438438  0  0.293403  0.283884  0  0.985347  0
H  H26  1  0.12709211  0.38001111  0.18015837  1  0.434089  0  0.295834  0.291355  0  0.952046  0
H  H27  1  0.02331519  0.24787422  0.84869217  1  0.433824  0  0.290781  0.280573  0  0.994063  0
H  H28  1  0.10688994  0.18635973  0.92365977  1  0.422836  0  0.297455  0.293581  0  0.949057  0
H  H29  1  0.01064389  0.85098697  0.40002430  1  0.429684  0  0.291766  0.281623  0  0.992478  0
H  H30  1  0.06201402  0.92606961  0.38768798  1  0.424595  0  0.297393  0.292607  0  0.948347  0
C  C31  1  0.48729769  0.44755564  0.60043176  1  1.588111  0  0.276254  0.656098  0  4.061505  0
C  C32  1  0.52694127  0.45154250  0.44717810  1  1.528452  0  0.275818  0.65545  0  4.063321  0
C  C33  1  0.48583092  0.60012547  0.45172985  1  1.572682  0  0.275469  0.6544  0  4.065028  0
C  C34  1  0.57749362  0.34361608  0.70629112  1  -0.022336  0  -0.082254  -0.084338  0  3.991528  0
C  C35  1  0.58032492  0.30840454  0.77448088  1  -0.095374  0  -0.101102  -0.156983  0  3.99312  0
C  C36  1  0.71363463  0.24355000  0.92191606  1  0.370657  0  0.092457  0.256983  0  4.059459  0
C  C37  1  0.68576167  0.21048050  0.99073055  1  -0.030728  0  -0.108746  -0.257695  0  3.963514  0
C  C38  1  0.40010282  0.70973942  0.35048401  1  0.080515  0  -0.078724  -0.081336  0  3.98013  0
C  C39  1  0.42965671  0.77733906  0.31670044  1  -0.161703  0  -0.093185  -0.1369  0  3.983694  0
C  C40  1  0.36597297  0.91997795  0.25191962  1  0.019056  0  -0.094595  -0.108737  0  4.036859  0
C  C41  1  0.35162508  0.98780459  0.21562904  1  -0.112691  0  -0.10862  -0.163895  0  4.033825  0
C  C42  1  0.48914438  0.41034126  0.67328953  1  -0.027029  0  -0.009018  -0.031372  0  3.964642  0
C  C43  1  0.51964660  0.33938924  0.81233835  1  0.039029  0  -0.007883  0.08113  0  3.990014  0
C  C44  1  0.52760241  0.30323739  0.88482936  1  0.00686  0  -0.02451  -0.063533  0  3.961727  0
C  C45  1  0.49672902  0.23550725  0.02498906  1  0.034818  0  -0.010177  0.086178  0  4.04231  0
C  C46  1  0.48768902  0.19996317  0.09740572  1  -0.073552  0  -0.006836  0.084578  0  4.014137  0
C  C47  1  0.48701725  0.13133192  0.13323149  1  0.014301  0  -0.089229  -0.175686  0  3.925132  0
C  C48  1  0.58336795  0.70562512  0.44851790  1  -0.018932  0  -0.081135  -0.082082  0  3.991519  0
C  C49  1  0.58772946  0.77371478  0.41578528  1  -0.077525  0  -0.101328  -0.157331  0  3.988134  0
C  C50  1  0.70303915  0.92197581  0.33309278  1  0.387962  0  0.092607  0.258308  0  4.051823  0
C  C51  1  0.67458061  0.99071338  0.29724130  1  -0.028186  0  -0.108348  -0.258131  0  3.964873  0
C  C52  1  0.45183145  0.35032325  0.44008040  1  0.040699  0  -0.080214  -0.08264  0  3.987235  0
C  C53  1  0.47844305  0.31643403  0.40584948  1  -0.05112  0  -0.093142  -0.135594  0  3.987329  0
C  C54  1  0.38578895  0.25371633  0.32815405  1  -0.031218  0  -0.094045  -0.108982  0  4.038716  0
C  C55  1  0.36231151  0.21725737  0.29715259  1  -0.067399  0  -0.110486  -0.167534  0  4.037381  0
C  C56  1  0.48780219  0.67279314  0.41644896  1  -0.055359  0  -0.011746  -0.037213  0  3.970276  0
C  C57  1  0.52329757  0.81186208  0.34804910  1  -0.034689  0  -0.007481  0.080703  0  3.985888  0
C  C58  1  0.53624042  0.88429620  0.31139090  1  0.030262  0  -0.024232  -0.064639  0  3.954368  0
C  C59  1  0.50363406  0.02474860  0.23868960  1  0.01312  0  -0.010679  0.085745  0  4.040748  0
C  C60  1  0.49102192  0.09709866  0.20197384  1  -0.149556  0  -0.006245  0.083573  0  4.012948  0
C  C61  1  0.49409203  0.13303769  0.23475901  1  0.003137  0  -0.08906  -0.174504  0  3.924687  0
C  C62  1  0.64827053  0.44731343  0.34387334  1  -0.003042  0  -0.080598  -0.079462  0  3.987216  0
C  C63  1  0.64946025  0.41455869  0.30835141  1  -0.089034  0  -0.100416  -0.154459  0  3.984444  0
C  C64  1  0.74692589  0.33049684  0.24134964  1  0.338055  0  0.094257  0.261758  0  4.053066  0
C  C65  1  0.70855648  0.29480697  0.20892214  1  0.048548  0  -0.109932  -0.263886  0  3.967061  0
C  C66  1  0.40883064  0.44132261  0.71000035  1  -0.097372  0  -0.079247  -0.082274  0  3.980158  0
C  C67  1  0.43561775  0.40702283  0.77778375  1  -0.021463  0  -0.091937  -0.134761  0  3.98367  0
C  C68  1  0.33709917  0.32730370  0.92060932  1  0.098654  0  -0.094044  -0.10796  0  4.035725  0
C  C69  1  0.32357447  0.29566077  0.98859237  1  -0.158273  0  -0.110156  -0.165838  0  4.035312  0
C  C70  1  0.54477863  0.41592248  0.40988293  1  -0.020593  0  -0.010685  -0.038173  0  3.972754  0
C  C71  1  0.57318548  0.34749411  0.33853484  1  -0.005086  0  -0.007833  0.080399  0  3.988122  0
C  C72  1  0.57335423  0.31102794  0.30239624  1  0.017206  0  -0.025471  -0.066325  0  3.957217  0
C  C73  1  0.52151560  0.23829251  0.23560079  1  -0.038061  0  -0.009282  0.088207  0  4.042329  0
C  C74  1  0.49853561  0.20164827  0.20023932  1  -0.060059  0  -0.006921  0.082904  0  4.016646  0
C  C75  1  0.49198149  0.23448513  0.13156034  1  -0.069636  0  -0.089828  -0.17867  0  3.930172  0
N  N76  1  0.95365985  0.38419024  0.21092262  1  -1.215498  0  -0.607977  -0.619557  0  3.301965  0
N  N77  1  0.92336059  0.21532997  0.89327148  1  -1.20444  0  -0.609892  -0.625072  0  3.305019  0
N  N78  1  0.89359927  0.89432708  0.38928327  1  -1.200667  0  -0.609172  -0.621586  0  3.304181  0
O  O79  1  0.25958254  0.57275170  0.43815224  1  -1.259058  0  -0.238337  -0.598373  0  2.352231  0
O  O80  1  0.24598198  0.48839426  0.57310757  1  -1.254322  0  -0.238059  -0.596652  0  2.347892  0
O  O81  1  0.28472808  0.43840696  0.48876156  1  -1.255817  0  -0.239398  -0.602393  0  2.363716  0
O  O82  1  0.71364261  0.56985872  0.49352220  1  -1.263094  0  -0.241317  -0.605046  0  2.363681  0
O  O83  1  0.75305390  0.49274158  0.43531466  1  -1.257307  0  -0.240518  -0.600627  0  2.3489  0
O  O84  1  0.73000619  0.43578228  0.57028766  1  -1.261445  0  -0.24042  -0.60271  0  2.356943  0
