# generated using pymatgen
data_Al6H77C96S3N15O37
_symmetry_space_group_name_H-M   'P 1'
_cell_length_a   13.38549934
_cell_length_b   13.44077215
_cell_length_c   27.34433331
_cell_angle_alpha   88.30235918
_cell_angle_beta   87.48697596
_cell_angle_gamma   61.40808508
_symmetry_Int_Tables_number   1
_chemical_formula_structural   Al6H77C96S3N15O37
_chemical_formula_sum   'Al6 H77 C96 S3 N15 O37'
_cell_volume   4315.25726573
_cell_formula_units_Z   1
loop_
 _symmetry_equiv_pos_site_id
 _symmetry_equiv_pos_as_xyz
  1  'x, y, z'
loop_
 _atom_site_type_symbol
 _atom_site_label
 _atom_site_symmetry_multiplicity
 _atom_site_fract_x
 _atom_site_fract_y
 _atom_site_fract_z
 _atom_site_occupancy
 _atom_site_pbe_bader_charge
 _atom_site_pbe_bader_spin_density
 _atom_site_pbe_cm5_charge
 _atom_site_pbe_ddec_charge
 _atom_site_pbe_ddec_spin_density
 _atom_site_pbe_ddec_sum_bond_order
 _atom_site_pbe_magmom
Al  Al0  1  0.14754366  0.41135776  0.50135681  1  2.49025  0  0.395604  1.68549  0  2.562709  0
Al  Al1  1  0.38946015  0.18430808  0.50408355  1  2.4788  0  0.506704  1.659578  0  2.506729  0
Al  Al2  1  0.39008923  0.40706042  0.49757673  1  2.485581  0  0.508406  1.663305  0  2.506956  0
Al  Al3  1  0.16212661  0.92188295  0.01343185  1  2.490472  0  0.390574  1.684677  0  2.564553  0
Al  Al4  1  0.92969771  0.15385260  0.01673757  1  2.481814  0  0.499376  1.660283  0  2.524767  0
Al  Al5  1  0.91917797  0.93744153  0.01297197  1  2.481431  0  0.500555  1.658625  0  2.507186  0
H  H6  1  0.51941494  0.31777789  0.82399183  1  0.045535  0  0.089549  0.090266  0  0.999362  0
H  H7  1  0.83080258  0.03606480  0.77247547  1  0.055928  0  0.104607  0.068772  0  1.001134  0
H  H8  1  0.21021710  0.80684159  0.78300461  1  0.041804  0  0.101028  0.051313  0  1.024815  0
H  H9  1  0.98731997  0.29321693  0.81062418  1  0.05024  0  0.095094  0.037563  0  0.990794  0
H  H10  1  0.79571349  0.25473061  0.14488229  1  0.081986  0  0.104232  0.1097  0  1.025738  0
H  H11  1  0.93143473  0.79032360  0.14586235  1  0.077097  0  0.099722  0.103624  0  1.023933  0
H  H12  1  0.23554399  0.94990274  0.14898575  1  0.113289  0  0.105809  0.114095  0  1.019847  0
H  H13  1  0.64298313  0.32213876  0.38530640  1  0.091718  0  0.113021  0.121546  0  0.987586  0
H  H14  1  0.03404401  0.61275275  0.38138517  1  0.112839  0  0.115299  0.126649  0  0.987897  0
H  H15  1  0.33516663  0.01502966  0.38311911  1  0.059897  0  0.108121  0.114638  0  0.995149  0
H  H16  1  0.78883658  0.34155567  0.22416325  1  0.068081  0  0.098568  0.099991  0  1.010957  0
H  H17  1  0.13067997  0.53474869  0.81128979  1  0.055088  0  0.09062  0.093567  0  1.036348  0
H  H18  1  0.85987476  0.76407106  0.22781602  1  0.071515  0  0.095127  0.094418  0  1.00881  0
H  H19  1  0.33625349  0.86611772  0.22572825  1  0.089784  0  0.095953  0.095887  0  1.017543  0
H  H20  1  0.73425525  0.36553111  0.31243544  1  0.053616  0  0.104861  0.109773  0  0.991149  0
H  H21  1  0.89695612  0.70012299  0.31425006  1  0.07033  0  0.104137  0.109086  0  0.990968  0
H  H22  1  0.37265897  0.88957925  0.31159624  1  0.051143  0  0.101736  0.1057  0  0.995547  0
H  H23  1  0.56814250  0.97921400  0.20778116  1  0.025632  0  0.100147  0.090395  0  1.020025  0
H  H24  1  0.42228642  0.61446143  0.19081515  1  0.032421  0  0.100186  0.088768  0  1.021938  0
H  H25  1  0.97495045  0.43587381  0.20985231  1  0.026023  0  0.098364  0.087141  0  1.025446  0
H  H26  1  0.51631064  0.00268160  0.29432376  1  0.062853  0  0.10138  0.103424  0  1.017285  0
H  H27  1  0.45672908  0.55162734  0.27540336  1  0.039791  0  0.101069  0.103484  0  1.003296  0
H  H28  1  0.35113460  0.09778752  0.80721369  1  0.026604  0  0.093378  0.08948  0  0.991555  0
H  H29  1  0.01107046  0.45669350  0.29409271  1  0.117475  0  0.101475  0.103794  0  1.018492  0
H  H30  1  0.42587067  0.30913065  0.75507383  1  0.052976  0  0.093135  0.097963  0  1.021562  0
H  H31  1  0.21627706  0.45243749  0.73615165  1  0.055886  0  0.092275  0.087222  0  1.034909  0
H  H32  1  0.35872298  0.13630194  0.72350235  1  0.080516  0  0.099167  0.104971  0  1.00231  0
H  H33  1  0.51661576  0.08319117  0.37545636  1  0.102291  0  0.110481  0.11868  0  1.009645  0
H  H34  1  0.38564155  0.52673208  0.35785141  1  0.102818  0  0.106821  0.114578  0  1.007095  0
H  H35  1  0.09597828  0.37033877  0.37388134  1  0.11579  0  0.116417  0.127658  0  0.997562  0
H  H36  1  0.80730220  0.19811504  0.75569648  1  0.091922  0  0.112915  0.068365  0  1.006484  0
H  H37  1  0.02733071  0.83737105  0.76504423  1  0.111094  0  0.11667  0.086405  0  0.998533  0
H  H38  1  0.06863116  0.10194488  0.80108059  1  0.06919  0  0.11833  0.079864  0  0.986973  0
H  H39  1  0.49142294  0.15890954  0.75714723  1  0.0541  0  0.095194  0.096721  0  1.028466  0
H  H40  1  0.76326005  0.08741749  0.69762161  1  0.108158  0  0.105376  0.067023  0  1.015528  0
H  H41  1  0.20228562  0.77423282  0.70404422  1  0.057437  0  0.099673  0.036642  0  1.079251  0
H  H42  1  0.99817009  0.26288969  0.73212453  1  0.056146  0  0.106183  0.041252  0  1.06281  0
H  H43  1  0.71218001  0.97355579  0.09500891  1  0.505172  0  0.309012  0.317447  0  0.978202  0
H  H44  1  0.64590081  0.94223333  0.14513663  1  0.43852  0  0.311969  0.303606  0  0.955215  0
H  H45  1  0.28847213  0.74525565  0.08201333  1  0.538255  0  0.311096  0.339197  0  0.96469  0
H  H46  1  0.37840713  0.68607314  0.13090578  1  0.433545  0  0.309328  0.296422  0  0.95901  0
H  H47  1  0.96701166  0.31277205  0.09882295  1  0.486225  0  0.306558  0.314783  0  0.983113  0
H  H48  1  0.95365960  0.40528823  0.14536741  1  0.424335  0  0.308351  0.299894  0  0.962041  0
H  H49  1  0.88826389  0.26189414  0.68581810  1  0.656756  0  0.307111  0.377678  0  0.970314  0
H  H50  1  0.33273448  0.47727157  0.74315217  1  0.033011  0  0.100285  0.106523  0  1.033367  0
H  H51  1  0.95688672  0.64420886  0.68935210  1  0.512949  0  0.323301  0.322812  0  0.907539  0
H  H52  1  0.09929850  0.90343605  0.66235255  1  0.658219  0  0.308613  0.391917  0  0.947976  0
H  H53  1  0.49414984  0.45795020  0.71374955  1  0.457187  0  0.28145  0.276041  0  1.012105  0
H  H54  1  0.57664178  0.46511358  0.75394173  1  0.39508  0  0.28467  0.257451  0  0.993203  0
H  H55  1  0.04873322  0.53503162  0.72389657  1  0.476256  0  0.302088  0.289318  0  0.973104  0
H  H56  1  0.94774504  0.65838581  0.75409386  1  0.495637  0  0.292675  0.27918  0  0.968208  0
H  H57  1  0.31643363  0.97247897  0.69219296  1  0.438801  0  0.304862  0.303548  0  0.929565  0
H  H58  1  0.30568424  0.90667313  0.74354134  1  0.426837  0  0.297349  0.28957  0  0.967979  0
H  H59  1  0.76251174  0.38474942  0.77731706  1  0.398695  0  0.281027  0.27004  0  0.986112  0
H  H60  1  0.66759015  0.39002708  0.82007744  1  0.399595  0  0.287542  0.275733  0  0.961791  0
H  H61  1  0.26558659  0.28262658  0.73122618  1  0.040321  0  0.095497  0.09587  0  1.010391  0
H  H62  1  0.95188934  0.73622786  0.83224768  1  0.403553  0  0.289017  0.278172  0  0.966775  0
H  H63  1  0.86714035  0.82990165  0.79182251  1  0.486357  0  0.27279  0.27329  0  1.027849  0
H  H64  1  0.19265447  0.97068340  0.85345510  1  0.420344  0  0.296546  0.290588  0  0.947129  0
H  H65  1  0.30775930  0.95562044  0.82279459  1  0.40819  0  0.291533  0.273484  0  0.96228  0
H  H66  1  0.72175666  0.94056128  0.70034906  1  0.416357  0  0.283837  0.283764  0  0.979203  0
H  H67  1  0.61049727  0.04455167  0.67572492  1  0.404523  0  0.280329  0.27021  0  0.984792  0
H  H68  1  0.41478637  0.66664857  0.71989930  1  0.416607  0  0.286369  0.270808  0  0.974929  0
H  H69  1  0.37325411  0.64660533  0.66633274  1  0.43378  0  0.299066  0.290835  0  0.93645  0
H  H70  1  0.95259064  0.42812238  0.70246542  1  0.381948  0  0.294958  0.286381  0  0.937395  0
H  H71  1  0.07969307  0.37215827  0.67858849  1  0.412802  0  0.290857  0.281831  0  0.965962  0
H  H72  1  0.53541527  0.18119774  0.83666943  1  0.026575  0  0.091685  0.086829  0  0.997418  0
H  H73  1  0.70706840  0.98878213  0.83607822  1  0.412535  0  0.282593  0.263342  0  0.98059  0
H  H74  1  0.65188983  0.97613756  0.78400869  1  0.442139  0  0.278176  0.263017  0  1.010004  0
H  H75  1  0.34543493  0.68204561  0.83626009  1  0.414148  0  0.287041  0.278761  0  0.96311  0
H  H76  1  0.39127129  0.57333230  0.79848449  1  0.422979  0  0.278736  0.26396  0  1.00322  0
H  H77  1  0.00200032  0.46584113  0.79728768  1  0.376112  0  0.279569  0.254162  0  0.993989  0
H  H78  1  0.06028318  0.40037520  0.84821197  1  0.4026  0  0.285966  0.267543  0  0.96561  0
H  H79  1  0.26587540  0.51352618  0.82508701  1  0.051495  0  0.096649  0.098748  0  0.981817  0
H  H80  1  0.29204795  0.24581554  0.81515720  1  0.046755  0  0.097855  0.10752  0  0.97882  0
H  H81  1  0.95822976  0.52801295  0.52877754  1  0.585075  0  0.292916  0.388043  0  0.915847  0
H  H82  1  0.35894395  0.86370058  0.00120536  1  0.572382  0  0.293322  0.382418  0  0.923151  0
C  C83  1  0.22846506  0.53257249  0.56652325  1  1.69276  0  0.283229  0.719694  0  4.151615  0
C  C84  1  0.73050805  0.16122561  0.85348110  1  -0.568525  0  0.002729  0.043206  0  3.975005  0
C  C85  1  0.12713341  0.72490427  0.85201231  1  -0.621429  0  -0.016313  -0.016182  0  4.041282  0
C  C86  1  0.15683728  0.18233013  0.86765631  1  -0.422864  0  -0.009836  -0.000207  0  4.048872  0
C  C87  1  0.54755209  0.23611420  0.66978821  1  -0.5349  0  -0.008805  -0.000723  0  3.970473  0
C  C88  1  0.21515256  0.58314233  0.66012840  1  -0.318107  0  -0.024965  -0.029498  0  4.025849  0
C  C89  1  0.19181643  0.18562047  0.66733940  1  -0.098256  0  -0.023765  -0.037926  0  4.068959  0
C  C90  1  0.52166920  0.24074878  0.62730335  1  0.280006  0  -0.032589  -0.192205  0  3.899055  0
C  C91  1  0.22293387  0.56350381  0.61672182  1  0.051128  0  -0.029026  -0.171975  0  3.92996  0
C  C92  1  0.20634657  0.18944504  0.62336563  1  -0.218843  0  -0.028017  -0.171494  0  3.920128  0
C  C93  1  0.09257695  0.09864117  0.08978502  1  1.493906  0  0.261521  0.64813  0  4.070456  0
C  C94  1  0.22349681  0.21507563  0.57336398  1  1.691875  0  0.280209  0.712831  0  4.169556  0
C  C95  1  0.78442164  0.11601015  0.08272633  1  1.447945  0  0.270711  0.658325  0  4.045234  0
C  C96  1  0.07265190  0.79862308  0.07854580  1  1.455433  0  0.2646  0.645321  0  4.072375  0
C  C97  1  0.10364730  0.13789944  0.95556654  1  1.631818  0  0.278756  0.722666  0  4.159398  0
C  C98  1  0.80199775  0.11273222  0.94432964  1  1.624793  0  0.279908  0.73268  0  4.134338  0
C  C99  1  0.08540445  0.81694451  0.94008939  1  1.626376  0  0.274929  0.718269  0  4.149977  0
C  C100  1  0.62898465  0.26388860  0.36327997  1  -0.016532  0  -0.076189  -0.142619  0  3.916609  0
C  C101  1  0.10148962  0.60979998  0.35657687  1  -0.006977  0  -0.076748  -0.14554  0  3.91699  0
C  C102  1  0.27622737  0.08703928  0.36132804  1  -0.045705  0  -0.081207  -0.150856  0  3.940061  0
C  C103  1  0.66131860  0.25111129  0.31344408  1  -0.043659  0  -0.003582  0.082233  0  4.030814  0
C  C104  1  0.07817490  0.64788996  0.30808611  1  -0.060924  0  -0.006344  0.078701  0  4.03909  0
C  C105  1  0.49460165  0.24959459  0.57639599  1  1.644342  0  0.282936  0.725583  0  4.137883  0
C  C106  1  0.25909512  0.07181129  0.31251642  1  0.029963  0  -0.007157  0.077635  0  4.043268  0
C  C107  1  0.72387175  0.22417002  0.21174609  1  -0.004153  0  -0.021039  0.04543  0  4.072711  0
C  C108  1  0.03522383  0.72122505  0.20878447  1  0.02472  0  -0.025976  0.040879  0  4.089116  0
C  C109  1  0.21840512  0.04471232  0.21383507  1  0.08031  0  -0.023163  0.045272  0  4.084395  0
C  C110  1  0.23458843  0.52086527  0.42508393  1  1.558152  0  0.272749  0.643761  0  4.082952  0
C  C111  1  0.23503497  0.21383604  0.43395307  1  1.546224  0  0.275575  0.642276  0  4.085393  0
C  C112  1  0.53484360  0.22430492  0.43709656  1  1.538103  0  0.285609  0.65625  0  4.05699  0
C  C113  1  0.74585282  0.29741018  0.24145054  1  -0.05113  0  -0.089771  -0.119599  0  4.019713  0
C  C114  1  0.94568821  0.72834397  0.24171826  1  -0.079928  0  -0.095089  -0.127749  0  4.042514  0
C  C115  1  0.29550848  0.94979981  0.24246185  1  -0.151053  0  -0.093362  -0.124011  0  4.031463  0
C  C116  1  0.73873297  0.06617561  0.77559845  1  0.346817  0  0.008696  0.093444  0  3.757969  0
C  C117  1  0.71581273  0.31068723  0.29010265  1  -0.007723  0  -0.095849  -0.149419  0  4.021838  0
C  C118  1  0.96582337  0.69335914  0.28931984  1  -0.067559  0  -0.098484  -0.15254  0  4.033841  0
C  C119  1  0.31537119  0.96256096  0.28978292  1  -0.000665  0  -0.099738  -0.153665  0  4.038226  0
C  C120  1  0.75431964  0.20916724  0.16207946  1  0.003879  0  -0.07911  -0.11637  0  3.957407  0
C  C121  1  0.01659659  0.75624495  0.16010028  1  -0.047922  0  -0.085317  -0.12585  0  3.992658  0
C  C122  1  0.19415491  0.03299569  0.16607224  1  -0.080478  0  -0.080428  -0.118244  0  3.96961  0
C  C123  1  0.73818886  0.13305708  0.13330617  1  -0.006314  0  -0.033136  -0.185402  0  3.970877  0
C  C124  1  0.10321444  0.75273826  0.12804678  1  -0.039764  0  -0.035381  -0.183312  0  3.981084  0
C  C125  1  0.11472499  0.12483792  0.13872111  1  -0.001973  0  -0.035967  -0.184741  0  3.988436  0
C  C126  1  0.55803341  0.12838999  0.35790010  1  -0.000689  0  -0.075218  -0.140708  0  3.905006  0
C  C127  1  0.24325416  0.71531633  0.77794473  1  0.362893  0  0.008077  0.089977  0  3.81056  0
C  C128  1  0.30047233  0.56102458  0.34363619  1  -0.023399  0  -0.081194  -0.147422  0  3.93125  0
C  C129  1  0.14094223  0.28827055  0.35601392  1  -0.024232  0  -0.074081  -0.139063  0  3.913484  0
C  C130  1  0.58605449  0.11583536  0.30746991  1  -0.008297  0  -0.003108  0.084932  0  4.024858  0
C  C131  1  0.28110570  0.59646203  0.29448567  1  0.002467  0  -0.006325  0.082927  0  4.038927  0
C  C132  1  0.12464827  0.27745558  0.30660629  1  -0.006575  0  -0.005199  0.081217  0  4.04444  0
C  C133  1  0.63921011  0.17656373  0.28476553  1  0.024332  0  0.010488  0.00788  0  3.876594  0
C  C134  1  0.16917666  0.64070606  0.27615014  1  -0.024945  0  0.008501  0.006486  0  3.87986  0
C  C135  1  0.18236108  0.16823905  0.28453718  1  -0.078068  0  0.008285  0.007057  0  3.887659  0
C  C136  1  0.56149857  0.04510654  0.27766334  1  -0.026372  0  -0.086718  -0.123408  0  3.990287  0
C  C137  1  0.37068278  0.58845418  0.26177742  1  -0.045693  0  -0.090098  -0.131352  0  4.01002  0
C  C138  1  0.06443565  0.29506078  0.79544666  1  0.334382  0  0.007051  0.097241  0  3.813896  0
C  C139  1  0.05125159  0.37288969  0.27763260  1  -0.052117  0  -0.088012  -0.124513  0  3.999429  0
C  C140  1  0.59174621  0.03203903  0.22887549  1  -0.004075  0  -0.093253  -0.122874  0  4.034537  0
C  C141  1  0.34989877  0.62453068  0.21416462  1  0.013125  0  -0.096632  -0.126088  0  4.052383  0
C  C142  1  0.03189963  0.35990538  0.23017605  1  -0.028616  0  -0.096102  -0.125329  0  4.044468  0
C  C143  1  0.64912354  0.08807490  0.20550098  1  -0.027623  0  -0.017433  -0.044205  0  3.988019  0
C  C144  1  0.23853704  0.67117755  0.19488191  1  -0.039647  0  -0.019486  -0.04989  0  3.987833  0
C  C145  1  0.08413114  0.25096031  0.20763571  1  -0.008283  0  -0.01979  -0.04496  0  3.996285  0
C  C146  1  0.50642821  0.23179820  0.75997628  1  -0.034345  0  -0.160247  -0.182916  0  3.847674  0
C  C147  1  0.23972848  0.51656801  0.74667774  1  -0.031188  0  -0.159764  -0.197866  0  3.845389  0
C  C148  1  0.27864952  0.19773476  0.74121582  1  -0.045222  0  -0.154737  -0.182886  0  3.853712  0
C  C149  1  0.69327926  0.09403504  0.72207285  1  0.302747  0  0.00817  0.090661  0  3.751927  0
C  C150  1  0.67022875  0.16288775  0.23384544  1  -0.016126  0  0.010193  0.028957  0  3.923532  0
C  C151  1  0.14826995  0.67740939  0.22638311  1  0.018662  0  0.007804  0.028624  0  3.927039  0
C  C152  1  0.16193080  0.15524659  0.23507945  1  -0.016789  0  0.007318  0.024478  0  3.933511  0
C  C153  1  0.68674311  0.06963261  0.15505310  1  0.497108  0  0.124797  0.275813  0  4.021028  0
C  C154  1  0.21645355  0.71200924  0.14512817  1  0.566342  0  0.130298  0.27973  0  4.00844  0
C  C155  1  0.05798553  0.23570181  0.15915698  1  0.457222  0  0.118966  0.267294  0  4.032872  0
C  C156  1  0.57871813  0.20231727  0.38546726  1  -0.026373  0  -0.01358  -0.040571  0  4.01297  0
C  C157  1  0.21160492  0.56700297  0.37420795  1  -0.008988  0  -0.015385  -0.038561  0  4.023964  0
C  C158  1  0.21629532  0.19400225  0.38286439  1  0.033837  0  -0.015893  -0.038874  0  4.033098  0
C  C159  1  0.63769325  0.30582528  0.72914000  1  0.324245  0  0.093034  0.055994  0  3.76163  0
C  C160  1  0.25162462  0.69221841  0.72199191  1  0.341795  0  0.00416  0.088682  0  3.805234  0
C  C161  1  0.06364282  0.69147709  0.72061903  1  0.16216  0  0.088509  0.02685  0  3.582628  0
C  C162  1  0.18729287  0.07230213  0.73951314  1  0.3704  0  0.106421  0.086955  0  3.771428  0
C  C163  1  0.72317830  0.25629271  0.77182650  1  0.335321  0  0.01162  0.084073  0  3.843463  0
C  C164  1  0.04112706  0.75068262  0.77168570  1  0.299314  0  0.011005  0.071651  0  3.770265  0
C  C165  1  0.15824662  0.08120559  0.79545691  1  0.365038  0  0.016694  0.075134  0  3.828543  0
C  C166  1  0.75754468  0.14198099  0.89613386  1  0.311196  0  -0.054701  -0.247045  0  3.94081  0
C  C167  1  0.10768491  0.76097500  0.89358734  1  0.317824  0  -0.047303  -0.218235  0  3.950409  0
C  C168  1  0.13952025  0.17208254  0.91102834  1  0.168301  0  -0.05448  -0.237207  0  3.970887  0
C  C169  1  0.59398395  0.21918083  0.71844719  1  0.121844  0  0.011768  0.077022  0  3.824983  0
C  C170  1  0.19324644  0.61874978  0.71070107  1  0.1312  0  0.005392  0.077386  0  3.891108  0
C  C171  1  0.06392345  0.28633931  0.73877093  1  0.289411  0  0.005003  0.092464  0  3.760931  0
C  C172  1  0.17893715  0.18601733  0.72009922  1  0.140501  0  0.006568  0.062654  0  3.892858  0
C  C173  1  0.55563061  0.23157949  0.80965349  1  -0.006493  0  -0.158088  -0.183648  0  3.885384  0
C  C174  1  0.19697268  0.55672303  0.79928158  1  -0.067359  0  -0.16325  -0.192561  0  3.876134  0
C  C175  1  0.28059493  0.18059797  0.79691981  1  -0.000517  0  -0.156896  -0.184242  0  3.887548  0
C  C176  1  0.68721246  0.18014127  0.80439670  1  0.108084  0  0.004859  0.061398  0  3.842439  0
C  C177  1  0.15128815  0.68602380  0.80184599  1  0.15159  0  -0.001155  0.063393  0  3.876266  0
C  C178  1  0.16754277  0.18629381  0.81509750  1  0.10881  0  0.000405  0.062683  0  3.88479  0
S  S179  1  0.71314966  0.32505038  0.67061774  1  2.935935  0  0.519082  1.068853  0  5.813255  0
S  S180  1  0.98471118  0.80145665  0.67125835  1  3.190329  0  0.5223  1.091609  0  6.111497  0
S  S181  1  0.06845658  0.05123488  0.70872453  1  2.988031  0  0.532217  1.07098  0  5.789333  0
N  N182  1  0.67190652  0.99421431  0.12842331  1  -1.26813  0  -0.583058  -0.596192  0  3.365802  0
N  N183  1  0.65146329  0.01643017  0.70799100  1  -1.114567  0  -0.638152  -0.641028  0  3.201247  0
N  N184  1  0.36919963  0.63521217  0.70327061  1  -1.147165  0  -0.617106  -0.601789  0  3.238043  0
N  N185  1  0.03605274  0.39302293  0.71180952  1  -1.080394  0  -0.612275  -0.607018  0  3.145121  0
N  N186  1  0.72011864  0.97701106  0.79915025  1  -1.179246  0  -0.621516  -0.603172  0  3.228632  0
N  N187  1  0.35386297  0.65965469  0.80036433  1  -1.160992  0  -0.637701  -0.63751  0  3.216405  0
N  N188  1  0.06976819  0.39555807  0.81086267  1  -1.112372  0  -0.62529  -0.611796  0  3.240316  0
N  N189  1  0.30175413  0.71110045  0.11651515  1  -1.270912  0  -0.568522  -0.580341  0  3.36728  0
N  N190  1  0.97761543  0.32590807  0.13415692  1  -1.250348  0  -0.589296  -0.607113  0  3.376712  0
N  N191  1  0.54563877  0.41412288  0.74217285  1  -1.157694  0  -0.626375  -0.637189  0  3.379613  0
N  N192  1  0.00220057  0.62349317  0.72152387  1  -1.143685  0  -0.602427  -0.476917  0  3.414136  0
N  N193  1  0.29687753  0.98086778  0.72881384  1  -1.144627  0  -0.611456  -0.608278  0  3.287469  0
N  N194  1  0.73865711  0.33753582  0.79994652  1  -1.119621  0  -0.635467  -0.627698  0  3.230688  0
N  N195  1  0.94025824  0.75204708  0.79558017  1  -1.154271  0  -0.618603  -0.61331  0  3.255855  0
N  N196  1  0.22542470  0.97272871  0.81930145  1  -1.122669  0  -0.619261  -0.605089  0  3.228584  0
O  O197  1  0.15367560  0.31243353  0.55841364  1  -1.208617  0  -0.20343  -0.547658  0  2.297947  0
O  O198  1  0.15934112  0.30239965  0.45448505  1  -1.252176  0  -0.209722  -0.551286  0  2.352876  0
O  O199  1  0.51179608  0.15198241  0.45925872  1  -1.265657  0  -0.232333  -0.596042  0  2.289129  0
O  O200  1  0.33137702  0.49856143  0.44250346  1  -1.27817  0  -0.248637  -0.616748  0  2.288051  0
O  O201  1  0.15968841  0.50304976  0.44717855  1  -1.251534  0  -0.213851  -0.568434  0  2.360652  0
O  O202  1  0.32986865  0.14190225  0.45296353  1  -1.272713  0  -0.248756  -0.613697  0  2.278152  0
O  O203  1  0.51538725  0.31852928  0.45581751  1  -1.266863  0  -0.231451  -0.593721  0  2.283895  0
O  O204  1  0.31100809  0.33321735  0.50130076  1  -1.608209  0  -0.392695  -1.272689  0  2.297965  0
O  O205  1  0.14734332  0.80492089  0.04996059  1  -1.266788  0  -0.225357  -0.582505  0  2.388341  0
O  O206  1  0.01071410  0.17832526  0.06497923  1  -1.274037  0  -0.253606  -0.631546  0  2.324245  0
O  O207  1  0.79666669  0.02992816  0.05797788  1  -1.270913  0  -0.24025  -0.613468  0  2.312317  0
O  O208  1  0.48212445  0.16932170  0.55840592  1  -1.244344  0  -0.234234  -0.600251  0  2.229928  0
O  O209  1  0.15315857  0.99896000  0.07384088  1  -1.264207  0  -0.22706  -0.584558  0  2.374224  0
O  O210  1  0.81636467  0.18650318  0.06470437  1  -1.276296  0  -0.243506  -0.613948  0  2.300859  0
O  O211  1  0.96851775  0.83517557  0.06491890  1  -1.278579  0  -0.260785  -0.630743  0  2.257683  0
O  O212  1  0.00222533  0.00605283  0.01326403  1  -1.613112  0  -0.392725  -1.269957  0  2.332633  0
O  O213  1  0.17159305  0.04268894  0.97382922  1  -1.229547  0  -0.215923  -0.579192  0  2.283586  0
O  O214  1  0.82324796  0.18283484  0.96632326  1  -1.252284  0  -0.228895  -0.590951  0  2.237039  0
O  O215  1  0.99975267  0.82411563  0.96635845  1  -1.254813  0  -0.245477  -0.613  0  2.23605  0
O  O216  1  0.76305405  0.22491264  0.64070671  1  -1.266837  0  -0.303461  -0.50146  0  2.154973  0
O  O217  1  0.63628883  0.43457962  0.65060525  1  -1.287309  0  -0.319971  -0.510706  0  2.121182  0
O  O218  1  0.81708516  0.33751418  0.69232274  1  -1.229234  0  -0.386693  -0.575363  0  2.208813  0
O  O219  1  0.31149527  0.52859406  0.53925865  1  -1.252924  0  -0.242341  -0.603824  0  2.212992  0
O  O220  1  0.89674427  0.89506165  0.69903775  1  -1.323483  0  -0.31238  -0.544839  0  2.2944  0
O  O221  1  0.06741823  0.83034239  0.64499592  1  -1.290735  0  -0.319964  -0.534297  0  2.260423  0
O  O222  1  0.94538489  0.74227491  0.63979879  1  -1.298935  0  -0.330762  -0.545533  0  2.115583  0
O  O223  1  0.00589909  0.02366237  0.74684849  1  -1.295938  0  -0.315927  -0.543485  0  2.213492  0
O  O224  1  0.99930638  0.14719055  0.67658884  1  -1.30265  0  -0.30926  -0.539134  0  2.294575  0
O  O225  1  0.14293230  0.94879555  0.67598355  1  -1.290109  0  -0.34581  -0.53356  0  2.307992  0
O  O226  1  0.15075522  0.85644940  0.95041989  1  -1.210226  0  -0.216436  -0.55787  0  2.259327  0
O  O227  1  0.00097283  0.20513404  0.97088158  1  -1.254869  0  -0.239277  -0.595692  0  2.231968  0
O  O228  1  0.82061233  0.01524557  0.96134226  1  -1.252138  0  -0.239277  -0.606725  0  2.237645  0
O  O229  1  0.15384318  0.50777628  0.55361632  1  -1.206717  0  -0.205842  -0.556419  0  2.289777  0
O  O230  1  0.31131761  0.13953243  0.54964572  1  -1.248616  0  -0.243886  -0.604044  0  2.225563  0
O  O231  1  0.48209409  0.33852258  0.55331539  1  -1.234889  0  -0.221924  -0.57941  0  2.247734  0
O  O232  1  0.99860083  0.48111131  0.50096941  1  -1.372064  0  -0.578904  -1.00064  0  1.785693  0
O  O233  1  0.31118949  0.83405067  0.01553228  1  -1.362365  0  -0.569276  -0.994357  0  1.835024  0
