# generated using pymatgen
data_Zn3H24C38(N3O2)4
_symmetry_space_group_name_H-M   'P 1'
_cell_length_a   11.56343772
_cell_length_b   11.61188922
_cell_length_c   11.79806775
_cell_angle_alpha   64.51463046
_cell_angle_beta   81.18535380
_cell_angle_gamma   72.28505404
_symmetry_Int_Tables_number   1
_chemical_formula_structural   Zn3H24C38(N3O2)4
_chemical_formula_sum   'Zn3 H24 C38 N12 O8'
_cell_volume   1361.75208247
_cell_formula_units_Z   1
loop_
 _symmetry_equiv_pos_site_id
 _symmetry_equiv_pos_as_xyz
  1  'x, y, z'
loop_
 _atom_site_type_symbol
 _atom_site_label
 _atom_site_symmetry_multiplicity
 _atom_site_fract_x
 _atom_site_fract_y
 _atom_site_fract_z
 _atom_site_occupancy
 _atom_site_pbe_bader_charge
 _atom_site_pbe_bader_spin_density
 _atom_site_pbe_cm5_charge
 _atom_site_pbe_ddec_charge
 _atom_site_pbe_ddec_spin_density
 _atom_site_pbe_ddec_sum_bond_order
 _atom_site_pbe_magmom
Zn  Zn0  1  0.00000413  0.00000259  0.50000202  1  1.35262  0  0.685704  0.845161  0  2.404041  0
Zn  Zn1  1  0.99998988  0.50000479  0.49999893  1  1.28271  0  0.690743  0.669816  0  2.50892  0
Zn  Zn2  1  0.00000261  0.99999873  0.00000333  1  1.282377  0  0.691032  0.662319  0  2.555301  0
H  H3  1  0.79023506  0.97969348  0.69590125  1  0.114944  0  0.124005  0.101875  0  0.976844  0
H  H4  1  0.63539502  0.41645684  0.35758253  1  0.062146  0  0.102925  0.103588  0  1.02312  0
H  H5  1  0.57218152  0.10076267  0.70794134  1  0.07474  0  0.10287  0.107883  0  1.020267  0
H  H6  1  0.19764833  0.36977750  0.71443844  1  0.117801  0  0.121384  0.092704  0  0.984106  0
H  H7  1  0.84935663  0.27971112  0.35976968  1  0.149384  0  0.129467  0.113578  0  0.972995  0
H  H8  1  0.42119070  0.26248718  0.73168776  1  0.04087  0  0.09852  0.096611  0  1.04918  0
H  H9  1  0.44557800  0.43752874  0.32601078  1  0.063267  0  0.109037  0.114134  0  0.997953  0
H  H10  1  0.22180110  0.53818273  0.32682222  1  0.153023  0  0.121549  0.092756  0  1.000794  0
H  H11  1  0.52880760  0.20999994  0.95641593  1  0.070213  0  0.108135  0.110823  0  1.010435  0
H  H12  1  0.85637252  0.80277232  0.02632408  1  0.146417  0  0.130324  0.106718  0  0.972346  0
H  H13  1  0.64398532  0.79204448  0.03289643  1  0.067243  0  0.111056  0.115636  0  1.002473  0
H  H14  1  0.74696890  0.20093785  0.95174317  1  0.110576  0  0.127469  0.103867  0  0.968177  0
H  H15  1  0.20975833  0.02031224  0.30409445  1  0.114966  0  0.124024  0.101891  0  0.976739  0
H  H16  1  0.36461650  0.58354984  0.64241176  1  0.062075  0  0.102934  0.103647  0  1.023092  0
H  H17  1  0.42781242  0.89924796  0.29204625  1  0.074793  0  0.102884  0.107943  0  1.020246  0
H  H18  1  0.80234628  0.63022323  0.28554989  1  0.117773  0  0.121399  0.092759  0  0.984017  0
H  H19  1  0.15065059  0.72029164  0.64023455  1  0.149794  0  0.129487  0.113567  0  0.972982  0
H  H20  1  0.57880270  0.73751850  0.26830033  1  0.04067  0  0.098486  0.09655  0  1.049174  0
H  H21  1  0.55441628  0.56247694  0.67397633  1  0.063431  0  0.108968  0.113993  0  0.997868  0
H  H22  1  0.77819010  0.46181404  0.67316746  1  0.153232  0  0.121546  0.092755  0  1.000588  0
H  H23  1  0.47119928  0.78998990  0.04358030  1  0.069986  0  0.108146  0.110861  0  1.010332  0
H  H24  1  0.14362985  0.19721072  0.97370284  1  0.14652  0  0.130328  0.10678  0  0.972291  0
H  H25  1  0.35601828  0.20794441  0.96710917  1  0.067419  0  0.111079  0.115641  0  1.002518  0
H  H26  1  0.25303525  0.79904515  0.04827419  1  0.110569  0  0.127472  0.103834  0  0.968152  0
C  C27  1  0.75155162  0.07781760  0.62415755  1  0.496796  0  0.055408  0.108001  0  3.929899  0
C  C28  1  0.02670985  0.21844687  0.61797025  1  0.41425  0  0.072785  -0.036039  0  3.985416  0
C  C29  1  0.04375474  0.96199120  0.76890771  1  1.600675  0  0.201973  0.568972  0  4.247655  0
C  C30  1  0.45366826  0.34012654  0.52951105  1  -0.015587  0  0.010591  0.105475  0  3.984235  0
C  C31  1  0.66483598  0.31981333  0.43457982  1  -0.07094  0  -0.083554  -0.172921  0  3.950793  0
C  C32  1  0.63054976  0.14617402  0.63009921  1  -0.013809  0  -0.085431  -0.177692  0  3.947158  0
C  C33  1  0.25695815  0.38322617  0.63079824  1  0.449325  0  0.050188  0.095652  0  3.957331  0
C  C34  1  0.05727875  0.24582922  0.48245530  1  1.632673  0  0.199191  0.566395  0  4.259146  0
C  C35  1  0.02192267  0.10751163  0.72967518  1  0.395646  0  0.072673  -0.031897  0  3.98287  0
C  C36  1  0.58393992  0.26964763  0.53239652  1  -0.011907  0  0.007914  0.097677  0  3.994179  0
C  C37  1  0.78461324  0.24550550  0.43562189  1  0.552735  0  0.058275  0.113658  0  3.904844  0
C  C38  1  0.38130038  0.32328649  0.63957651  1  0.033692  0  -0.088736  -0.186745  0  3.965197  0
C  C39  1  0.39523698  0.42210301  0.41495947  1  -0.00657  0  -0.080912  -0.171431  0  3.937461  0
C  C40  1  0.27042713  0.47801736  0.41455328  1  0.459021  0  0.055593  0.11065  0  3.932488  0
C  C41  1  0.56442133  0.00054368  0.99703934  1  0.001372  0  0.00638  0.088915  0  3.996224  0
C  C42  1  0.59702176  0.11645508  0.97257131  1  -0.070186  0  -0.083892  -0.179393  0  3.959892  0
C  C43  1  0.77993553  0.89038487  0.01145054  1  0.491822  0  0.060713  0.107893  0  3.919267  0
C  C44  1  0.66045468  0.88581466  0.01542594  1  -0.031542  0  -0.081483  -0.176563  0  3.942848  0
C  C45  1  0.71878175  0.11287664  0.96967515  1  0.546398  0  0.057801  0.102802  0  3.939009  0
C  C46  1  0.24844201  0.92218711  0.37583516  1  0.496647  0  0.055463  0.108088  0  3.92962  0
C  C47  1  0.97329043  0.78156283  0.38203206  1  0.414354  0  0.072785  -0.035945  0  3.985176  0
C  C48  1  0.95625325  0.03801554  0.23110064  1  1.601255  0  0.20212  0.569445  0  4.247153  0
C  C49  1  0.54632602  0.65987914  0.47047607  1  -0.014192  0  0.01056  0.105426  0  3.984455  0
C  C50  1  0.33516831  0.68019433  0.56541258  1  -0.070285  0  -0.083568  -0.17291  0  3.950857  0
C  C51  1  0.36944651  0.85383066  0.36988803  1  -0.01379  0  -0.085478  -0.177843  0  3.94737  0
C  C52  1  0.74303494  0.61677358  0.36919159  1  0.449197  0  0.050211  0.095582  0  3.957522  0
C  C53  1  0.94271494  0.75417160  0.51755262  1  1.632656  0  0.199227  0.566268  0  4.25931  0
C  C54  1  0.97808326  0.89248917  0.27033431  1  0.39533  0  0.072729  -0.032033  0  3.983071  0
C  C55  1  0.41605762  0.73035903  0.46759139  1  -0.012113  0  0.007924  0.0976  0  3.994487  0
C  C56  1  0.21539176  0.75449921  0.56437421  1  0.552043  0  0.058271  0.113605  0  3.905021  0
C  C57  1  0.61869884  0.67671325  0.36041325  1  0.033578  0  -0.088651  -0.186565  0  3.965336  0
C  C58  1  0.60475826  0.57789870  0.58502749  1  -0.007933  0  -0.080729  -0.171103  0  3.937208  0
C  C59  1  0.72956494  0.52197942  0.58543711  1  0.458803  0  0.055462  0.110476  0  3.932245  0
C  C60  1  0.43558555  0.99944616  0.00295605  1  -0.035005  0  0.006415  0.088965  0  3.996096  0
C  C61  1  0.40298097  0.88353379  0.02742849  1  -0.07046  0  -0.08391  -0.179479  0  3.960031  0
C  C62  1  0.22007266  0.10960307  0.98856495  1  0.491503  0  0.06066  0.107887  0  3.919392  0
C  C63  1  0.33954654  0.11417325  0.98457875  1  -0.031564  0  -0.081498  -0.176563  0  3.94324  0
C  C64  1  0.28122470  0.88711129  0.03033721  1  0.547048  0  0.057774  0.102937  0  3.939308  0
N  N65  1  0.99846698  0.32280474  0.65094219  1  -0.730056  0  -0.236618  -0.191901  0  3.597118  0
N  N66  1  0.82689948  0.12582383  0.52816340  1  -1.250731  0  -0.309938  -0.215922  0  3.504221  0
N  N67  1  0.20181364  0.45816138  0.52039746  1  -1.235801  0  -0.308164  -0.215693  0  3.482791  0
N  N68  1  0.97634230  0.28296160  0.77430304  1  -0.103497  0  -0.115955  -0.0781  0  3.196746  0
N  N69  1  0.99073264  0.15278053  0.82217117  1  -0.719198  0  -0.237788  -0.200971  0  3.59976  0
N  N70  1  0.80866330  0.00178204  0.98968776  1  -1.228526  0  -0.305286  -0.202293  0  3.493955  0
N  N71  1  0.00152900  0.67720103  0.34906667  1  -0.73005  0  -0.236613  -0.191872  0  3.596746  0
N  N72  1  0.17310148  0.87417594  0.47183541  1  -1.250916  0  -0.30995  -0.215847  0  3.504187  0
N  N73  1  0.79817795  0.54183737  0.47959047  1  -1.235401  0  -0.308195  -0.215689  0  3.48288  0
N  N74  1  0.02365741  0.71704318  0.22570654  1  -0.103607  0  -0.116027  -0.078144  0  3.196672  0
N  N75  1  0.00927257  0.84722325  0.17783886  1  -0.719209  0  -0.237904  -0.201054  0  3.599875  0
N  N76  1  0.19133997  0.99820096  0.01032973  1  -1.228737  0  -0.30522  -0.20246  0  3.493939  0
O  O77  1  0.08723634  0.15178459  0.44695418  1  -1.187312  0  -0.3304  -0.557363  0  2.320861  0
O  O78  1  0.05182718  0.36632717  0.40949493  1  -1.162186  0  -0.331294  -0.534712  0  2.239105  0
O  O79  1  0.04960804  0.91542155  0.68842310  1  -1.173774  0  -0.31595  -0.542115  0  2.365293  0
O  O80  1  0.05443588  0.89063493  0.88682694  1  -1.174092  0  -0.334619  -0.543211  0  2.247924  0
O  O81  1  0.91277349  0.84821820  0.55305812  1  -1.187022  0  -0.330408  -0.557342  0  2.320922  0
O  O82  1  0.94814573  0.63368355  0.59050424  1  -1.162139  0  -0.33129  -0.534621  0  2.239351  0
O  O83  1  0.95040546  0.08458417  0.31157893  1  -1.174218  0  -0.315927  -0.542246  0  2.365319  0
O  O84  1  0.94557022  0.10936883  0.11317788  1  -1.174025  0  -0.33467  -0.543385  0  2.247707  0
