# generated using pymatgen
data_AlH12C21NO12
_symmetry_space_group_name_H-M   'P 1'
_cell_length_a   4.18286195
_cell_length_b   13.46951047
_cell_length_c   13.46952927
_cell_angle_alpha   119.99934574
_cell_angle_beta   90.00005927
_cell_angle_gamma   89.99986673
_symmetry_Int_Tables_number   1
_chemical_formula_structural   AlH12C21NO12
_chemical_formula_sum   'Al1 H12 C21 N1 O12'
_cell_volume   657.22073550
_cell_formula_units_Z   1
loop_
 _symmetry_equiv_pos_site_id
 _symmetry_equiv_pos_as_xyz
  1  'x, y, z'
loop_
 _atom_site_type_symbol
 _atom_site_label
 _atom_site_symmetry_multiplicity
 _atom_site_fract_x
 _atom_site_fract_y
 _atom_site_fract_z
 _atom_site_occupancy
 _atom_site_pbe_bader_charge
 _atom_site_pbe_bader_spin_density
 _atom_site_pbe_cm5_charge
 _atom_site_pbe_ddec_charge
 _atom_site_pbe_ddec_spin_density
 _atom_site_pbe_ddec_sum_bond_order
 _atom_site_pbe_magmom
Al  Al0  1  0.00000147  0.49999721  0.49999588  1  2.507767  0  0.441738  1.608767  0  2.547549  0
H  H1  1  0.19114801  0.02955789  0.89373409  1  0.07563  0  0.112648  0.140975  0  1.016434  0
H  H2  1  0.80880124  0.02955445  0.63582154  1  0.07457  0  0.112603  0.140973  0  1.016688  0
H  H3  1  0.80887325  0.10626695  0.97044073  1  0.075314  0  0.112612  0.14086  0  1.016663  0
H  H4  1  0.19117087  0.36417080  0.97044765  1  0.074913  0  0.11262  0.140958  0  1.016516  0
H  H5  1  0.80892243  0.36415473  0.89371027  1  0.107933  0  0.112616  0.140962  0  1.016652  0
H  H6  1  0.19106364  0.10628901  0.63585400  1  0.107837  0  0.112635  0.140924  0  1.016482  0
H  H7  1  0.97616959  0.74465214  0.51082923  1  0.620212  0  0.311527  0.348558  0  0.94541  0
H  H8  1  0.02375268  0.74465814  0.73382240  1  0.615703  0  0.311608  0.348655  0  0.945516  0
H  H9  1  0.97625930  0.26617825  0.25534330  1  0.61568  0  0.311479  0.348427  0  0.945628  0
H  H10  1  0.02381733  0.48915313  0.25534297  1  0.620255  0  0.311576  0.348562  0  0.945622  0
H  H11  1  0.97626887  0.48913378  0.73378187  1  0.615789  0  0.311489  0.348516  0  0.945741  0
H  H12  1  0.02372769  0.26620901  0.51086039  1  0.615848  0  0.311522  0.348591  0  0.945644  0
C  C13  1  0.50000364  0.41082146  0.32166501  1  1.543396  0  0.281259  0.709823  0  4.034405  0
C  C14  1  0.49999930  0.41082944  0.58916318  1  1.50809  0  0.281302  0.709841  0  4.034456  0
C  C15  1  0.49996729  0.67833594  0.58916209  1  1.495905  0  0.281188  0.709665  0  4.034487  0
C  C16  1  0.31531821  0.86606279  0.75290395  1  0.408653  0  0.086195  0.338387  0  4.089563  0
C  C17  1  0.32692000  0.98509389  0.81472835  1  0.143259  0  -0.110976  -0.308078  0  3.950022  0
C  C18  1  0.49996502  0.04524877  0.77262851  1  0.33846  0  0.100749  0.230163  0  4.046801  0
C  C19  1  0.67302729  0.98509733  0.67035450  1  0.030565  0  -0.111043  -0.308382  0  3.949621  0
C  C20  1  0.68460820  0.86605879  0.61314937  1  0.544815  0  0.0862  0.338599  0  4.089841  0
C  C21  1  0.49996934  0.80495070  0.65247064  1  0.085084  0  -0.063992  -0.369868  0  4.041949  0
C  C22  1  0.67311268  0.18525983  0.01490116  1  0.143336  0  -0.110857  -0.3078  0  3.949258  0
C  C23  1  0.68469085  0.24709038  0.13394082  1  0.408351  0  0.086122  0.338312  0  4.089492  0
C  C24  1  0.50004191  0.34751471  0.19505308  1  0.036792  0  -0.063949  -0.369681  0  4.04171  0
C  C25  1  0.31539537  0.38683481  0.13394199  1  0.544923  0  0.086253  0.338264  0  4.089565  0
C  C26  1  0.32697357  0.32963156  0.01491065  1  0.030338  0  -0.110976  -0.308012  0  3.94993  0
C  C27  1  0.50001728  0.22737416  0.95474859  1  0.338567  0  0.100678  0.229852  0  4.046742  0
C  C28  1  0.67311110  0.32963355  0.81472754  1  0.040033  0  -0.111006  -0.308088  0  3.949173  0
C  C29  1  0.68468660  0.38683069  0.75288902  1  0.56499  0  0.086245  0.33863  0  4.089026  0
C  C30  1  0.50000919  0.34752640  0.65247495  1  -0.022119  0  -0.063959  -0.369888  0  4.04124  0
C  C31  1  0.31529145  0.24710362  0.61316881  1  0.565458  0  0.086208  0.338566  0  4.089019  0
C  C32  1  0.32689148  0.18528724  0.67038209  1  0.039425  0  -0.110993  -0.307955  0  3.949892  0
C  C33  1  0.49998590  0.22736484  0.77262133  1  0.274411  0  0.100622  0.229731  0  4.04649  0
N  N34  1  0.49999339  0.16666543  0.83333393  1  -1.330597  0  -0.240391  -0.143425  0  3.604608  0
O  O35  1  0.73761579  0.62662088  0.60379656  1  -1.268681  0  -0.233333  -0.610296  0  2.359088  0
O  O36  1  0.73764462  0.47717138  0.37337447  1  -1.267781  0  -0.233262  -0.610311  0  2.359212  0
O  O37  1  0.73763080  0.39619469  0.52282476  1  -1.266705  0  -0.233314  -0.610263  0  2.359537  0
O  O38  1  0.26235971  0.62662319  0.52281996  1  -1.268297  0  -0.23321  -0.610105  0  2.359524  0
O  O39  1  0.26237710  0.47716988  0.60379456  1  -1.266888  0  -0.233311  -0.610248  0  2.359371  0
O  O40  1  0.26238896  0.39619312  0.37337227  1  -1.268075  0  -0.233238  -0.610134  0  2.359537  0
O  O41  1  0.86990241  0.81228164  0.51659448  1  -1.145312  0  -0.358517  -0.438748  0  2.235886  0
O  O42  1  0.12999559  0.81227766  0.79567760  1  -1.140044  0  -0.358727  -0.438891  0  2.235632  0
O  O43  1  0.87003309  0.20431319  0.18771139  1  -1.139888  0  -0.358576  -0.438658  0  2.235787  0
O  O44  1  0.13007224  0.48339689  0.18772691  1  -1.145234  0  -0.358793  -0.438867  0  2.235624  0
O  O45  1  0.87007376  0.48337583  0.79565406  1  -1.141271  0  -0.358643  -0.438917  0  2.235669  0
O  O46  1  0.12993510  0.20433812  0.51662576  1  -1.141406  0  -0.35863  -0.438948  0  2.235776  0
