# generated using pymatgen
data_Ho2Cu3H30C24(NO4)6
_symmetry_space_group_name_H-M   'P 1'
_cell_length_a   13.38500005
_cell_length_b   13.38494283
_cell_length_c   14.29211756
_cell_angle_alpha   90.00015531
_cell_angle_beta   90.00008207
_cell_angle_gamma   120.00021186
_symmetry_Int_Tables_number   1
_chemical_formula_structural   Ho2Cu3H30C24(NO4)6
_chemical_formula_sum   'Ho4 Cu6 H60 C48 N12 O48'
_cell_volume   2217.48750829
_cell_formula_units_Z   2
loop_
 _symmetry_equiv_pos_site_id
 _symmetry_equiv_pos_as_xyz
  1  'x, y, z'
loop_
 _atom_site_type_symbol
 _atom_site_label
 _atom_site_symmetry_multiplicity
 _atom_site_fract_x
 _atom_site_fract_y
 _atom_site_fract_z
 _atom_site_occupancy
 _atom_site_pbe_bader_charge
 _atom_site_pbe_bader_spin_density
 _atom_site_pbe_cm5_charge
 _atom_site_pbe_ddec_charge
 _atom_site_pbe_ddec_spin_density
 _atom_site_pbe_ddec_sum_bond_order
 _atom_site_pbe_magmom
Ho  Ho0  1  0.66666365  0.33333204  0.16848184  1  2.190575  0.002546  1.519538  2.096469  0.003434  2.145324  0.006
Ho  Ho1  1  0.33333571  0.66666954  0.33152156  1  2.190387  0.002546  1.519475  2.096463  0.003434  2.145304  0.006
Ho  Ho2  1  0.33333801  0.66666948  0.83151535  1  2.190612  0.002545  1.519526  2.096422  0.003434  2.145529  0.006
Ho  Ho3  1  0.66666434  0.33333210  0.66848053  1  2.190475  0.002546  1.519566  2.096475  0.003434  2.145394  0.006
Cu  Cu4  1  0.49999903  0.99999914  0.99999966  1  1.047457  0.577793  0.743604  0.764774  0.734385  2.204007  0.576
Cu  Cu5  1  0.49999940  0.49999996  0.00000096  1  1.047996  0.577814  0.743617  0.764852  0.734389  2.203876  0.576
Cu  Cu6  1  0.00000113  0.50000067  0.00000010  1  1.049157  0.577788  0.743628  0.764698  0.734387  2.203987  0.576
Cu  Cu7  1  0.50000022  0.00000106  0.49999972  1  1.049289  0.577792  0.74359  0.764596  0.734391  2.204097  0.576
Cu  Cu8  1  0.00000087  0.50000019  0.50000001  1  1.047371  0.577797  0.743578  0.764788  0.73439  2.203863  0.576
Cu  Cu9  1  0.49999934  0.49999927  0.49999965  1  1.048113  0.577813  0.743564  0.764774  0.734388  2.203937  0.576
H  H10  1  0.64001270  0.96329308  0.91624865  1  0.502938  -0.00023  0.29055  0.253396  4.7e-05  1.017667  0.0
H  H11  1  0.83167401  0.13652380  0.97385221  1  0.065328  0.006136  0.109695  0.104727  0.003136  0.976356  0.004
H  H12  1  0.74029194  0.02707730  0.05443473  1  0.090583  0.000263  0.119939  0.121954  3.1e-05  0.970822  0.0
H  H13  1  0.68925832  0.08510015  0.79345821  1  0.116469  0.001818  0.121161  0.130394  0.000939  0.965989  0.001
H  H14  1  0.74160206  0.20433061  0.86826257  1  0.148172  0.000357  0.124459  0.135545  0.00019  0.997375  0.0
H  H15  1  0.32327870  0.35998209  0.91624978  1  0.5033  -0.000189  0.290552  0.253321  4.7e-05  1.017783  0.0
H  H16  1  0.30484047  0.16831935  0.97385260  1  0.066025  0.00612  0.109709  0.104756  0.003135  0.976416  0.004
H  H17  1  0.28678518  0.25970722  0.05443612  1  0.096337  0.000261  0.119931  0.121971  3.1e-05  0.970818  0.0
H  H18  1  0.39584160  0.31073838  0.79345900  1  0.114107  0.001814  0.121173  0.13038  0.000938  0.966081  0.001
H  H19  1  0.46272337  0.25839219  0.86826035  1  0.119896  0.000367  0.124523  0.135596  0.00019  0.997417  0.0
H  H20  1  0.03670145  0.67671823  0.91624719  1  0.501052  -0.00018  0.290547  0.253288  4.7e-05  1.017833  0.0
H  H21  1  0.86347590  0.69515092  0.97385154  1  0.052253  0.006165  0.109702  0.104744  0.003136  0.976366  0.004
H  H22  1  0.97292428  0.71321758  0.05443224  1  0.103878  0.00026  0.119932  0.121956  3.1e-05  0.970869  0.0
H  H23  1  0.91489294  0.60414913  0.79345692  1  0.115061  0.001815  0.12118  0.130424  0.000938  0.965932  0.001
H  H24  1  0.79566454  0.53726727  0.86826022  1  0.107539  0.000373  0.124498  0.135563  0.00019  0.997425  0.0
H  H25  1  0.67672773  0.03670591  0.58374534  1  0.500648  -0.000181  0.290493  0.253233  4.7e-05  1.017845  0.0
H  H26  1  0.69515753  0.86347470  0.52614261  1  0.052425  0.006165  0.109716  0.104795  0.003135  0.976398  0.004
H  H27  1  0.71322737  0.97292443  0.44556128  1  0.10373  0.00026  0.119889  0.121926  3.1e-05  0.970951  0.0
H  H28  1  0.60415773  0.91489707  0.70653436  1  0.11477  0.001817  0.121166  0.1304  0.000939  0.965977  0.001
H  H29  1  0.53726871  0.79566874  0.63173000  1  0.107559  0.000373  0.124461  0.135601  0.00019  0.997422  0.0
H  H30  1  0.96329792  0.64002452  0.58374839  1  0.502902  -0.000229  0.290504  0.253287  4.7e-05  1.017751  0.0
H  H31  1  0.13652896  0.83168175  0.52614220  1  0.065232  0.006136  0.109697  0.10477  0.003135  0.97635  0.004
H  H32  1  0.02707538  0.74030021  0.44556473  1  0.09053  0.000263  0.119925  0.12192  3.1e-05  0.970908  0.0
H  H33  1  0.08510785  0.68926287  0.70653933  1  0.11644  0.001818  0.121166  0.130369  0.000938  0.966004  0.001
H  H34  1  0.20433252  0.74160219  0.63173531  1  0.14813  0.000357  0.124483  0.135632  0.00019  0.997347  0.0
H  H35  1  0.35997712  0.32327291  0.58374969  1  0.503295  -0.00019  0.290516  0.253319  4.7e-05  1.017746  0.0
H  H36  1  0.16831958  0.30485136  0.52614366  1  0.066084  0.00612  0.109697  0.104782  0.003135  0.976376  0.004
H  H37  1  0.25969559  0.28677189  0.44556502  1  0.096218  0.000261  0.119916  0.121919  3.1e-05  0.970905  0.0
H  H38  1  0.31073933  0.39584697  0.70653841  1  0.114465  0.001813  0.121164  0.130398  0.000939  0.965982  0.001
H  H39  1  0.25839950  0.46273170  0.63173289  1  0.119938  0.000366  0.12449  0.135662  0.00019  0.99735  0.0
H  H40  1  0.35998555  0.03670589  0.08375204  1  0.502939  -0.00023  0.290542  0.253378  4.6e-05  1.017707  0.0
H  H41  1  0.16832455  0.86347634  0.02614988  1  0.065275  0.006136  0.109697  0.104709  0.003135  0.976433  0.004
H  H42  1  0.25970630  0.97292167  0.94556737  1  0.090617  0.000263  0.119919  0.121936  3.1e-05  0.970845  0.0
H  H43  1  0.31073886  0.91489689  0.20654318  1  0.116453  0.001818  0.121159  0.13037  0.000939  0.966063  0.001
H  H44  1  0.25839693  0.79566911  0.13173882  1  0.148157  0.000357  0.124484  0.135577  0.00019  0.997424  0.0
H  H45  1  0.67672029  0.64001762  0.08374951  1  0.503324  -0.00019  0.290536  0.253287  4.7e-05  1.017755  0.0
H  H46  1  0.69515895  0.83167993  0.02614739  1  0.06604  0.00612  0.109717  0.104772  0.003136  0.9764  0.004
H  H47  1  0.71321499  0.74029281  0.94556457  1  0.096665  0.000261  0.119929  0.121975  3.1e-05  0.97082  0.0
H  H48  1  0.60416081  0.68926388  0.20654099  1  0.114083  0.001814  0.121165  0.130392  0.000938  0.966045  0.001
H  H49  1  0.53727562  0.74160752  0.13173964  1  0.119696  0.000367  0.124521  0.135592  0.00019  0.997393  0.0
H  H50  1  0.96329904  0.32328298  0.08375141  1  0.501084  -0.00018  0.290542  0.253271  4.7e-05  1.017768  0.0
H  H51  1  0.13652309  0.30484880  0.02614845  1  0.052262  0.006165  0.109707  0.104718  0.003136  0.976387  0.004
H  H52  1  0.02707664  0.28678319  0.94556705  1  0.103881  0.00026  0.119927  0.121939  3.1e-05  0.970857  0.0
H  H53  1  0.08510680  0.39585133  0.20654238  1  0.11507  0.001815  0.121182  0.130435  0.000938  0.965937  0.001
H  H54  1  0.20433488  0.46273201  0.13173907  1  0.107564  0.000373  0.12449  0.135562  0.00019  0.997422  0.0
H  H55  1  0.32327350  0.96329605  0.41625325  1  0.500665  -0.000181  0.290524  0.253269  4.7e-05  1.0178  0.0
H  H56  1  0.30484520  0.13652874  0.47385598  1  0.052401  0.006165  0.10971  0.104793  0.003135  0.976363  0.004
H  H57  1  0.28677429  0.02707709  0.55443661  1  0.103752  0.00026  0.119922  0.121955  3.1e-05  0.970872  0.0
H  H58  1  0.39584264  0.08510575  0.29346423  1  0.114761  0.001817  0.121165  0.130381  0.000939  0.966005  0.001
H  H59  1  0.46273135  0.20433290  0.36826790  1  0.107558  0.000373  0.124463  0.135631  0.00019  0.997395  0.0
H  H60  1  0.03670225  0.35997550  0.41625160  1  0.503032  -0.00023  0.290538  0.253357  4.7e-05  1.017751  0.0
H  H61  1  0.86346928  0.16831721  0.47385779  1  0.065264  0.006137  0.109682  0.104741  0.003136  0.976379  0.004
H  H62  1  0.97292361  0.25969951  0.55443526  1  0.090531  0.000263  0.119929  0.121922  3.1e-05  0.970917  0.0
H  H63  1  0.91489200  0.31073598  0.29346136  1  0.116672  0.001818  0.121164  0.130378  0.000939  0.966018  0.001
H  H64  1  0.79566722  0.25839827  0.36826399  1  0.14813  0.000357  0.124465  0.135587  0.00019  0.99742  0.0
H  H65  1  0.64002273  0.67672594  0.41625100  1  0.503301  -0.00019  0.290534  0.253346  4.7e-05  1.017736  0.0
H  H66  1  0.83167984  0.69514792  0.47385633  1  0.066095  0.006119  0.109687  0.104737  0.003135  0.976408  0.004
H  H67  1  0.74030383  0.71322739  0.55443497  1  0.096242  0.000261  0.119915  0.121917  3.1e-05  0.970892  0.0
H  H68  1  0.68925966  0.60415274  0.29346158  1  0.114477  0.001813  0.121173  0.130395  0.000939  0.965965  0.001
H  H69  1  0.74159993  0.53726759  0.36826640  1  0.119933  0.000366  0.124455  0.135592  0.00019  0.997401  0.0
C  C70  1  0.73880254  0.18428737  0.06968739  1  1.588937  0.002314  0.207502  0.624396  0.001316  4.173871  0.002
C  C71  1  0.74618435  0.09499931  0.00767617  1  0.247627  0.000531  -0.067529  -0.1781  0.000339  3.896848  -0.002
C  C72  1  0.66835733  0.11691692  0.85725005  1  0.192467  0.00153  -0.067158  -0.206158  0.000917  3.858775  -0.001
C  C73  1  0.56280652  0.12853563  0.83841233  1  1.578795  0.001182  0.233123  0.666004  0.00096  4.089665  0.001
C  C74  1  0.44548276  0.26119219  0.06968729  1  1.580458  0.002315  0.207526  0.624377  0.001316  4.173857  0.002
C  C75  1  0.34881099  0.25380971  0.00767681  1  0.244845  0.000559  -0.067576  -0.178243  0.000339  3.896857  -0.002
C  C76  1  0.44855581  0.33163697  0.85725087  1  0.214548  0.001538  -0.067278  -0.206243  0.000917  3.858827  -0.001
C  C77  1  0.56572856  0.43718623  0.83841342  1  1.585283  0.001149  0.233228  0.666004  0.000961  4.089303  0.001
C  C78  1  0.81571140  0.55451700  0.06968650  1  1.581637  0.002309  0.207517  0.624357  0.001316  4.173872  0.002
C  C79  1  0.90500067  0.65118589  0.00767628  1  0.243062  0.000524  -0.067542  -0.178163  0.000339  3.896892  -0.002
C  C80  1  0.88307870  0.55143716  0.85725073  1  0.228081  0.001527  -0.067224  -0.206219  0.000918  3.858859  -0.001
C  C81  1  0.87146340  0.43426976  0.83841782  1  1.577603  0.001166  0.233061  0.665897  0.00096  4.089569  0.001
C  C82  1  0.55452243  0.81571579  0.43030572  1  1.580938  0.002309  0.207478  0.624295  0.001316  4.17382  0.002
C  C83  1  0.65119593  0.90500243  0.49231700  1  0.242997  0.000524  -0.067596  -0.178361  0.00034  3.897007  -0.002
C  C84  1  0.55144054  0.88308168  0.64274248  1  0.228433  0.001525  -0.067134  -0.206121  0.000918  3.858852  -0.001
C  C85  1  0.43427622  0.87146736  0.66157865  1  1.577821  0.001162  0.233072  0.665818  0.000959  4.08951  0.001
C  C86  1  0.18428503  0.73880824  0.43030748  1  1.589001  0.002314  0.207469  0.624294  0.001316  4.17402  0.002
C  C87  1  0.09499896  0.74619093  0.49231923  1  0.248026  0.00053  -0.067578  -0.178215  0.000339  3.896947  -0.002
C  C88  1  0.11691981  0.66835969  0.64274612  1  0.192407  0.001531  -0.067208  -0.206175  0.000918  3.858783  -0.001
C  C89  1  0.12853769  0.56281037  0.66157945  1  1.57876  0.001181  0.233075  0.665872  0.000959  4.089448  0.001
C  C90  1  0.26119453  0.44547613  0.43030576  1  1.580805  0.002315  0.207591  0.62448  0.001316  4.173645  0.002
C  C91  1  0.25380907  0.34880713  0.49231884  1  0.244367  0.00056  -0.067581  -0.178262  0.000339  3.896975  -0.002
C  C92  1  0.33164162  0.44856165  0.64274529  1  0.214376  0.001539  -0.067213  -0.206284  0.000917  3.85888  -0.001
C  C93  1  0.43719321  0.56572787  0.66158106  1  1.584602  0.001148  0.233094  0.66594  0.000959  4.089687  0.001
C  C94  1  0.26119421  0.81571010  0.93031261  1  1.588991  0.002314  0.207498  0.624264  0.001316  4.1739  0.002
C  C95  1  0.25381315  0.90499890  0.99232522  1  0.247688  0.00053  -0.067514  -0.178056  0.000338  3.896848  -0.002
C  C96  1  0.33164092  0.88308204  0.14275135  1  0.192425  0.001531  -0.067217  -0.206237  0.000918  3.858832  -0.001
C  C97  1  0.43719311  0.87146643  0.16158696  1  1.578775  0.001183  0.233118  0.666014  0.00096  4.089525  0.001
C  C98  1  0.55451549  0.73880678  0.93031130  1  1.580883  0.002315  0.207512  0.624306  0.001316  4.173976  0.002
C  C99  1  0.65118768  0.74618883  0.99232318  1  0.244139  0.00056  -0.067592  -0.178272  0.000339  3.896895  -0.002
C  C100  1  0.55144436  0.66836306  0.14274982  1  0.214749  0.001538  -0.067239  -0.206206  0.000918  3.858775  -0.001
C  C101  1  0.43427408  0.56281282  0.16158797  1  1.58533  0.001149  0.233159  0.665976  0.00096  4.089236  0.001
C  C102  1  0.18429050  0.44548131  0.93031139  1  1.581639  0.002309  0.207483  0.624247  0.001316  4.174025  0.002
C  C103  1  0.09500025  0.34881488  0.99232301  1  0.243141  0.000524  -0.067548  -0.178084  0.000339  3.896846  -0.002
C  C104  1  0.11692147  0.44856287  0.14274926  1  0.227977  0.001527  -0.067248  -0.206294  0.000918  3.858776  -0.001
C  C105  1  0.12853987  0.56573164  0.16158427  1  1.577635  0.001166  0.233116  0.666031  0.00096  4.089418  0.001
C  C106  1  0.44548202  0.18428593  0.56969287  1  1.581009  0.002309  0.207454  0.62434  0.001316  4.173926  0.002
C  C107  1  0.34880679  0.09500102  0.50768159  1  0.242989  0.000524  -0.067592  -0.178342  0.000339  3.896854  -0.002
C  C108  1  0.44856070  0.11692027  0.35725611  1  0.22844  0.001526  -0.067156  -0.206187  0.000918  3.85892  -0.001
C  C109  1  0.56572427  0.12853384  0.33841925  1  1.577785  0.001162  0.233024  0.66578  0.000959  4.089725  0.001
C  C110  1  0.81571459  0.26119383  0.56969252  1  1.589032  0.002314  0.207443  0.624263  0.001316  4.173901  0.002
C  C111  1  0.90500003  0.25380878  0.50768076  1  0.247994  0.00053  -0.067558  -0.178159  0.000339  3.896885  -0.002
C  C112  1  0.88308122  0.33163948  0.35725457  1  0.192011  0.001531  -0.067167  -0.206177  0.000917  3.858932  -0.001
C  C113  1  0.87146334  0.43718880  0.33841704  1  1.578776  0.001182  0.233079  0.665879  0.00096  4.089769  0.001
C  C114  1  0.73880533  0.55452272  0.56969563  1  1.580799  0.002315  0.207523  0.624307  0.001316  4.17384  0.002
C  C115  1  0.74619035  0.65119215  0.50768116  1  0.244371  0.00056  -0.067573  -0.178181  0.000339  3.896892  -0.002
C  C116  1  0.66835886  0.55143955  0.35725540  1  0.21435  0.001539  -0.06716  -0.206134  0.000917  3.858906  -0.001
C  C117  1  0.56280685  0.43427377  0.33841823  1  1.584719  0.001148  0.23303  0.665787  0.00096  4.089888  0.001
N  N118  1  0.65274921  0.04268679  0.93865006  1  -1.082119  0.09648  -0.498927  -0.27964  0.061776  3.559017  0.08
N  N119  1  0.38993540  0.34724699  0.93865166  1  -1.084286  0.096408  -0.498872  -0.279466  0.061773  3.559003  0.08
N  N120  1  0.95730995  0.61006011  0.93864957  1  -1.071787  0.09639  -0.498901  -0.279455  0.061773  3.558984  0.08
N  N121  1  0.61006740  0.95731291  0.56134320  1  -1.071538  0.096397  -0.498762  -0.279259  0.061777  3.558725  0.08
N  N122  1  0.04268903  0.65275498  0.56134664  1  -1.081838  0.096475  -0.498803  -0.279423  0.061772  3.558775  0.08
N  N123  1  0.34724442  0.38993217  0.56134651  1  -1.08407  0.096415  -0.498791  -0.279406  0.061778  3.558834  0.08
N  N124  1  0.34724946  0.95731174  0.06135134  1  -1.082146  0.096481  -0.4989  -0.279547  0.061776  3.558898  0.08
N  N125  1  0.61006359  0.65275272  0.06134833  1  -1.084316  0.096407  -0.498886  -0.279474  0.061772  3.559041  0.08
N  N126  1  0.04269053  0.38994110  0.06134972  1  -1.071802  0.096391  -0.498891  -0.279402  0.061774  3.558828  0.08
N  N127  1  0.38993341  0.04268948  0.43865539  1  -1.071523  0.096397  -0.498805  -0.279297  0.061777  3.558771  0.08
N  N128  1  0.95731157  0.34724461  0.43865335  1  -1.08184  0.09648  -0.498851  -0.279501  0.061776  3.558926  0.08
N  N129  1  0.65275425  0.61006637  0.43865348  1  -1.084091  0.096411  -0.498843  -0.279508  0.061776  3.558891  0.08
O  O130  1  0.64780489  0.19275527  0.06299344  1  -1.181806  -0.000948  -0.400877  -0.677774  -0.001469  2.334855  0.0
O  O131  1  0.82025135  0.24408564  0.12536436  1  -1.199343  0.001427  -0.320747  -0.590626  0.000639  2.177104  0.001
O  O132  1  0.56440303  0.18795097  0.76923652  1  -1.207019  0.013001  -0.412894  -0.672434  0.008069  2.34298  0.01
O  O133  1  0.47648360  0.07945891  0.89369444  1  -1.115085  0.086395  -0.316606  -0.512891  0.054774  2.280049  0.078
O  O134  1  0.54494803  0.35219480  0.06299077  1  -1.186852  -0.000959  -0.400868  -0.677771  -0.001469  2.334791  0.0
O  O135  1  0.42383770  0.17974666  0.12536192  1  -1.189261  0.001422  -0.320763  -0.590608  0.000638  2.177251  0.001
O  O136  1  0.62354060  0.43558013  0.76924107  1  -1.210889  0.013004  -0.41296  -0.672402  0.008069  2.343087  0.01
O  O137  1  0.60297824  0.52351331  0.89369508  1  -1.108653  0.086437  -0.316672  -0.51296  0.054776  2.279795  0.078
O  O138  1  0.80724307  0.45505008  0.06299457  1  -1.176634  -0.00095  -0.400898  -0.677739  -0.001469  2.334738  0.0
O  O139  1  0.75591140  0.57616722  0.12535984  1  -1.193374  0.001424  -0.320738  -0.590587  0.000639  2.177217  0.001
O  O140  1  0.81204001  0.37644904  0.76923832  1  -1.209823  0.013005  -0.412912  -0.67245  0.00807  2.342741  0.01
O  O141  1  0.92053654  0.39702025  0.89369513  1  -1.112344  0.086424  -0.31659  -0.512826  0.05477  2.28005  0.078
O  O142  1  0.45506076  0.80725500  0.43700164  1  -1.176474  -0.00095  -0.400873  -0.677721  -0.001469  2.334772  0.0
O  O143  1  0.57616838  0.75591140  0.37463301  1  -1.192774  0.001424  -0.320652  -0.590455  0.000639  2.177045  0.001
O  O144  1  0.37645542  0.81204615  0.73076282  1  -1.209737  0.013006  -0.412937  -0.672445  0.00807  2.342622  0.01
O  O145  1  0.39702327  0.92053969  0.60630416  1  -1.112554  0.086425  -0.316582  -0.512792  0.054769  2.280146  0.078
O  O146  1  0.19274582  0.64780496  0.43699847  1  -1.181879  -0.000948  -0.400903  -0.677835  -0.001469  2.334845  0.0
O  O147  1  0.24408947  0.82026103  0.37463847  1  -1.199659  0.001427  -0.32063  -0.590417  0.000638  2.17717  0.001
O  O148  1  0.18795996  0.56441053  0.73076239  1  -1.207031  0.013002  -0.412948  -0.672489  0.008069  2.342719  0.01
O  O149  1  0.07946688  0.47648521  0.60630199  1  -1.115088  0.086384  -0.316546  -0.512814  0.054766  2.280063  0.078
O  O150  1  0.35219384  0.54494036  0.43699914  1  -1.186724  -0.00096  -0.400914  -0.677888  -0.001469  2.334841  0.0
O  O151  1  0.17974188  0.42382625  0.37463303  1  -1.189291  0.001422  -0.320741  -0.590584  0.000638  2.176923  0.001
O  O152  1  0.43560072  0.62355282  0.73075983  1  -1.210299  0.013006  -0.412889  -0.672438  0.00807  2.342807  0.01
O  O153  1  0.52351698  0.60297546  0.60630174  1  -1.108814  0.086427  -0.316575  -0.512834  0.054771  2.280077  0.078
O  O154  1  0.35219261  0.80724295  0.93700586  1  -1.181797  -0.000948  -0.400871  -0.677695  -0.001469  2.334853  0.0
O  O155  1  0.17974273  0.75591002  0.87463913  1  -1.199367  0.001427  -0.320737  -0.590561  0.000639  2.177131  0.001
O  O156  1  0.43559715  0.81204906  0.23076348  1  -1.206972  0.013002  -0.412886  -0.672453  0.00807  2.342869  0.01
O  O157  1  0.52351453  0.92054167  0.10630556  1  -1.115048  0.086393  -0.316609  -0.512872  0.054772  2.280005  0.078
O  O158  1  0.45505096  0.64780491  0.93700852  1  -1.186882  -0.000959  -0.400841  -0.67766  -0.001469  2.334745  0.0
O  O159  1  0.57616215  0.82025219  0.87463738  1  -1.189272  0.001422  -0.320742  -0.590578  0.000639  2.177353  0.001
O  O160  1  0.37646012  0.56441786  0.23076382  1  -1.210917  0.013005  -0.412891  -0.672365  0.008069  2.342887  0.01
O  O161  1  0.39702161  0.47648554  0.10630841  1  -1.108707  0.086432  -0.316703  -0.513006  0.054774  2.279738  0.078
O  O162  1  0.19275796  0.54494909  0.93700122  1  -1.176553  -0.000949  -0.400888  -0.677719  -0.001468  2.334704  0.0
O  O163  1  0.24408900  0.42382959  0.87464156  1  -1.193469  0.001424  -0.320689  -0.590497  0.000639  2.177305  0.001
O  O164  1  0.18796220  0.62355044  0.23076098  1  -1.209859  0.013006  -0.412946  -0.672526  0.00807  2.34273  0.01
O  O165  1  0.07946513  0.60298127  0.10630626  1  -1.112114  0.086432  -0.316553  -0.512818  0.054774  2.280008  0.078
O  O166  1  0.54494208  0.19274684  0.56299975  1  -1.176649  -0.00095  -0.40088  -0.677774  -0.001469  2.334902  0.0
O  O167  1  0.42383329  0.24409012  0.62536558  1  -1.192712  0.001424  -0.320663  -0.590485  0.000639  2.177113  0.001
O  O168  1  0.62354550  0.18795462  0.26923507  1  -1.209791  0.013006  -0.412876  -0.672361  0.00807  2.342695  0.01
O  O169  1  0.60297646  0.07946077  0.39369443  1  -1.112483  0.086428  -0.316592  -0.512802  0.054771  2.280216  0.078
O  O170  1  0.80725349  0.35219593  0.56300152  1  -1.181933  -0.000948  -0.400882  -0.677777  -0.001469  2.334775  0.0
O  O171  1  0.75591059  0.17974061  0.62536292  1  -1.199642  0.001427  -0.320647  -0.590435  0.000638  2.177107  0.001
O  O172  1  0.81204473  0.43558797  0.26924180  1  -1.206933  0.013004  -0.41289  -0.672428  0.008071  2.343018  0.01
O  O173  1  0.92053683  0.52351576  0.39369730  1  -1.115108  0.086404  -0.316592  -0.512855  0.054779  2.280012  0.078
O  O174  1  0.64780602  0.45505849  0.56300225  1  -1.186771  -0.00096  -0.400932  -0.677818  -0.001469  2.334903  0.0
O  O175  1  0.82025829  0.57617378  0.62536766  1  -1.189293  0.001422  -0.320678  -0.59049  0.000638  2.177021  0.001
O  O176  1  0.56440169  0.37644945  0.26924227  1  -1.21036  0.013006  -0.412833  -0.672353  0.00807  2.342896  0.01
O  O177  1  0.47648201  0.39702426  0.39369755  1  -1.108794  0.086431  -0.31659  -0.512825  0.054774  2.280121  0.078
