# generated using pymatgen
data_ZnH10C17NO4
_symmetry_space_group_name_H-M   'P 1'
_cell_length_a   13.10333604
_cell_length_b   13.23182599
_cell_length_c   13.89293711
_cell_angle_alpha   84.45705221
_cell_angle_beta   70.27360411
_cell_angle_gamma   82.19919958
_symmetry_Int_Tables_number   1
_chemical_formula_structural   ZnH10C17NO4
_chemical_formula_sum   'Zn4 H40 C68 N4 O16'
_cell_volume   2243.09853361
_cell_formula_units_Z   4
loop_
 _symmetry_equiv_pos_site_id
 _symmetry_equiv_pos_as_xyz
  1  'x, y, z'
loop_
 _atom_site_type_symbol
 _atom_site_label
 _atom_site_symmetry_multiplicity
 _atom_site_fract_x
 _atom_site_fract_y
 _atom_site_fract_z
 _atom_site_occupancy
 _atom_site_pbe_bader_charge
 _atom_site_pbe_bader_spin_density
 _atom_site_pbe_cm5_charge
 _atom_site_pbe_ddec_charge
 _atom_site_pbe_ddec_spin_density
 _atom_site_pbe_ddec_sum_bond_order
 _atom_site_pbe_magmom
Zn  Zn0  1  0.18618639  0.31873413  0.66723651  1  1.294425  0  0.669794  0.830182  0  2.397393  0
Zn  Zn1  1  0.12523282  0.32417304  0.88469629  1  1.293261  0  0.674224  0.826635  0  2.404607  0
Zn  Zn2  1  0.81381473  0.68126269  0.33276381  1  1.294521  0  0.669793  0.830173  0  2.39745  0
Zn  Zn3  1  0.87476394  0.67582690  0.11530440  1  1.29345  0  0.674229  0.826648  0  2.404596  0
H  H4  1  0.75895365  0.35038928  0.98116010  1  0.080757  0  0.10469  0.110374  0  1.010779  0
H  H5  1  0.56704651  0.34905242  0.98727463  1  0.082469  0  0.104383  0.106352  0  0.990562  0
H  H6  1  0.87398091  0.30529877  0.65815248  1  0.094088  0  0.101579  0.110782  0  1.008  0
H  H7  1  0.43383043  0.33283068  0.89719809  1  0.093595  0  0.104772  0.113993  0  1.004253  0
H  H8  1  0.54887583  0.29125144  0.57387264  1  0.121654  0  0.106864  0.114449  0  0.99585  0
H  H9  1  0.74135149  0.29085920  0.56869209  1  0.059983  0  0.09689  0.096066  0  1.038404  0
H  H10  1  0.18994426  0.99463023  0.64069795  1  0.102185  0  0.10115  0.105743  0  1.014159  0
H  H11  1  0.10585872  0.81393196  0.98651087  1  0.100074  0  0.102489  0.115079  0  1.019666  0
H  H12  1  0.11297360  0.00248371  0.96601156  1  0.084134  0  0.101433  0.104397  0  1.018661  0
H  H13  1  0.12263111  0.64975758  0.90908868  1  0.102671  0  0.105382  0.114661  0  1.032536  0
H  H14  1  0.19112745  0.64057084  0.58493138  1  0.076269  0  0.097552  0.099001  0  1.032903  0
H  H15  1  0.20130728  0.82916671  0.56309744  1  0.058205  0  0.097315  0.096648  0  1.011128  0
H  H16  1  0.12212829  0.16509755  0.05082815  1  0.143331  0  0.125633  0.101386  0  0.994076  0
H  H17  1  0.13243243  0.15354070  0.22760036  1  0.067578  0  0.1142  0.119243  0  0.991137  0
H  H18  1  0.13344315  0.48207347  0.20112040  1  0.095746  0  0.108004  0.110829  0  1.048321  0
H  H19  1  0.11585648  0.47985612  0.02899642  1  0.153495  0  0.125902  0.106329  0  0.999983  0
H  H20  1  0.22323927  0.16024598  0.33276324  1  0.071745  0  0.11542  0.120946  0  0.992363  0
H  H21  1  0.24617078  0.16774588  0.50314641  1  0.114954  0  0.129757  0.105075  0  0.973723  0
H  H22  1  0.11457639  0.46964293  0.52771064  1  0.127934  0  0.122433  0.095184  0  1.006756  0
H  H23  1  0.07854732  0.47493421  0.36172101  1  0.080087  0  0.113442  0.122869  0  1.015926  0
H  H24  1  0.24104886  0.64961824  0.01883311  1  0.080664  0  0.104619  0.110337  0  1.010821  0
H  H25  1  0.43295151  0.65096736  0.01272112  1  0.082234  0  0.104359  0.106304  0  0.990747  0
H  H26  1  0.12601828  0.69470114  0.34184674  1  0.094329  0  0.101583  0.110864  0  1.007804  0
H  H27  1  0.56617172  0.66717225  0.10279850  1  0.093516  0  0.104772  0.11391  0  1.004177  0
H  H28  1  0.45112293  0.70874465  0.42612847  1  0.121666  0  0.10687  0.11448  0  0.995874  0
H  H29  1  0.25864426  0.70913466  0.43130799  1  0.059972  0  0.09689  0.096153  0  1.038345  0
H  H30  1  0.81006035  0.00536426  0.35930003  1  0.102133  0  0.101197  0.105798  0  1.014187  0
H  H31  1  0.89413492  0.18606648  0.01349380  1  0.100066  0  0.102524  0.115089  0  1.019681  0
H  H32  1  0.88701748  0.99751633  0.03398874  1  0.084392  0  0.101422  0.104397  0  1.018603  0
H  H33  1  0.87736723  0.35024228  0.09091872  1  0.102775  0  0.105406  0.114704  0  1.032471  0
H  H34  1  0.80886341  0.35942306  0.41507455  1  0.075914  0  0.097564  0.099043  0  1.032814  0
H  H35  1  0.79868933  0.17082633  0.43690820  1  0.058129  0  0.097246  0.096577  0  1.011091  0
H  H36  1  0.87788942  0.83490360  0.94916588  1  0.142905  0  0.125553  0.101268  0  0.994193  0
H  H37  1  0.86758211  0.84645973  0.77239617  1  0.067373  0  0.114294  0.119341  0  0.991173  0
H  H38  1  0.86654243  0.51793273  0.79888471  1  0.095509  0  0.108059  0.110878  0  1.04828  0
H  H39  1  0.88414167  0.52014610  0.97100292  1  0.153556  0  0.125896  0.106322  0  1.000014  0
H  H40  1  0.77675828  0.83975393  0.66723936  1  0.071916  0  0.115462  0.121065  0  0.992348  0
H  H41  1  0.75382417  0.83225558  0.49685832  1  0.114755  0  0.129758  0.105081  0  0.973744  0
H  H42  1  0.88542583  0.53035922  0.47228744  1  0.128004  0  0.122449  0.095265  0  1.006682  0
H  H43  1  0.92145031  0.52506492  0.63828308  1  0.080101  0  0.113433  0.122878  0  1.015887  0
C  C44  1  0.94339453  0.33029170  0.81268691  1  1.563041  0  0.206535  0.572938  0  4.202184  0
C  C45  1  0.82744914  0.32828665  0.81812694  1  -0.030002  0  -0.025953  -0.045666  0  4.006866  0
C  C46  1  0.74032255  0.34035283  0.91215568  1  -0.053313  0  -0.091783  -0.106594  0  4.005259  0
C  C47  1  0.63428487  0.33948513  0.91528616  1  -0.020139  0  -0.088305  -0.129857  0  3.992857  0
C  C48  1  0.60991298  0.32592602  0.82537177  1  -0.075615  0  -0.005809  0.076674  0  4.005974  0
C  C49  1  0.69793499  0.31335313  0.73033603  1  0.007959  0  -0.009705  0.074816  0  4.016945  0
C  C50  1  0.80580872  0.31501073  0.72940895  1  -0.074003  0  -0.08502  -0.145011  0  3.94698  0
C  C51  1  0.50211820  0.32405317  0.82597559  1  0.022546  0  -0.079084  -0.137833  0  3.927787  0
C  C52  1  0.48078914  0.31149109  0.73700345  1  -0.063653  0  -0.015365  -0.021523  0  3.966638  0
C  C53  1  0.56787764  0.30005832  0.64295621  1  -0.026912  0  -0.085393  -0.093713  0  3.98822  0
C  C54  1  0.67378240  0.30024749  0.64033057  1  -0.08146  0  -0.094215  -0.142073  0  4.004699  0
C  C55  1  0.36475931  0.31134153  0.74162374  1  1.559334  0  0.212518  0.591006  0  4.174706  0
C  C56  1  0.15786781  0.12227671  0.79032643  1  1.569602  0  0.214833  0.595364  0  4.162383  0
C  C57  1  0.15353125  0.00893231  0.80133432  1  -0.047107  0  -0.020405  -0.030735  0  3.983597  0
C  C58  1  0.17184463  0.95430021  0.71582897  1  -0.068346  0  -0.084056  -0.144728  0  3.94741  0
C  C59  1  0.16702415  0.84758998  0.72479665  1  -0.016787  0  -0.009028  0.07405  0  4.015274  0
C  C60  1  0.14458601  0.79584205  0.82431029  1  -0.012217  0  -0.007347  0.071818  0  4.000502  0
C  C61  1  0.12537538  0.85358034  0.91101328  1  -0.043624  0  -0.089095  -0.129447  0  3.972159  0
C  C62  1  0.12915256  0.95760674  0.89973734  1  -0.020161  0  -0.089812  -0.099224  0  3.997022  0
C  C63  1  0.14018959  0.68896153  0.83354832  1  -0.061298  0  -0.080531  -0.139851  0  3.929163  0
C  C64  1  0.15589498  0.63449270  0.74856274  1  -0.006844  0  -0.023276  -0.034179  0  3.985119  0
C  C65  1  0.17781207  0.68596517  0.65032021  1  -0.034459  0  -0.094525  -0.106847  0  4.013724  0
C  C66  1  0.18347144  0.78968246  0.63874036  1  -0.069783  0  -0.095175  -0.140195  0  4.010638  0
C  C67  1  0.15019386  0.52141111  0.75939322  1  1.566917  0  0.21171  0.58475  0  4.178738  0
C  C68  1  0.12420423  0.23299746  0.08845843  1  0.512475  0  0.059433  0.104852  0  3.920556  0
C  C69  1  0.13125179  0.22769213  0.18632304  1  -0.049121  0  -0.074641  -0.167218  0  3.942324  0
C  C70  1  0.13507859  0.31775405  0.23019457  1  -0.003511  0  0.01648  0.101444  0  3.980002  0
C  C71  1  0.14807210  0.31723009  0.33177921  1  -0.030132  0  0.019572  0.113468  0  3.969127  0
C  C72  1  0.12931389  0.40980975  0.17232337  1  -0.023718  0  -0.075329  -0.157819  0  3.912946  0
C  C73  1  0.12095662  0.40938774  0.07543481  1  0.507365  0  0.063657  0.118547  0  3.885282  0
C  C74  1  0.19547933  0.23026412  0.37373794  1  -0.026801  0  -0.075569  -0.172794  0  3.94144  0
C  C75  1  0.21042669  0.23387458  0.46766274  1  0.502073  0  0.061457  0.105282  0  3.923489  0
C  C76  1  0.13580779  0.40294855  0.48158066  1  0.463416  0  0.057409  0.103818  0  3.918081  0
C  C77  1  0.11703931  0.40501111  0.38885758  1  0.052708  0  -0.074029  -0.166355  0  3.918634  0
C  C78  1  0.05660444  0.66971051  0.18731146  1  1.563016  0  0.206514  0.572817  0  4.202301  0
C  C79  1  0.17255326  0.67171401  0.18186689  1  -0.029888  0  -0.025814  -0.045294  0  4.006715  0
C  C80  1  0.25967997  0.65965471  0.08783609  1  -0.052867  0  -0.091762  -0.106679  0  4.005108  0
C  C81  1  0.36571983  0.66052463  0.08470833  1  -0.020017  0  -0.088269  -0.129799  0  3.992877  0
C  C82  1  0.39008693  0.67408305  0.17462428  1  -0.075613  0  -0.005827  0.076637  0  4.005886  0
C  C83  1  0.30206750  0.68664679  0.26965423  1  0.008005  0  -0.009675  0.075014  0  4.016607  0
C  C84  1  0.19418816  0.68498852  0.27058313  1  -0.074467  0  -0.085025  -0.145275  0  3.946916  0
C  C85  1  0.49788433  0.67594594  0.17402121  1  0.022716  0  -0.079135  -0.137716  0  3.927415  0
C  C86  1  0.51921270  0.68850647  0.26299873  1  -0.063714  0  -0.015297  -0.021494  0  3.966456  0
C  C87  1  0.43212007  0.69994007  0.35704575  1  -0.026974  0  -0.08547  -0.093825  0  3.988173  0
C  C88  1  0.32621647  0.69974787  0.35966553  1  -0.081519  0  -0.094266  -0.142287  0  4.004555  0
C  C89  1  0.63524301  0.68865147  0.25837580  1  1.559166  0  0.212499  0.590971  0  4.174798  0
C  C90  1  0.84213391  0.87772242  0.20966918  1  1.569522  0  0.214847  0.595261  0  4.16242  0
C  C91  1  0.84646794  0.99106759  0.19866633  1  -0.04707  0  -0.020382  -0.030707  0  3.983438  0
C  C92  1  0.82815729  0.04569658  0.28417325  1  -0.068398  0  -0.084155  -0.144848  0  3.947637  0
C  C93  1  0.83297852  0.15240759  0.27520167  1  -0.016626  0  -0.009082  0.074004  0  4.0153  0
C  C94  1  0.85541534  0.20415247  0.17569086  1  -0.01225  0  -0.007272  0.071836  0  4.000505  0
C  C95  1  0.87461851  0.14641582  0.08898935  1  -0.043698  0  -0.089119  -0.129436  0  3.972077  0
C  C96  1  0.87084517  0.04239167  0.10026246  1  -0.020366  0  -0.089776  -0.099163  0  3.996747  0
C  C97  1  0.85980671  0.31103457  0.16645788  1  -0.062053  0  -0.080574  -0.139916  0  3.929227  0
C  C98  1  0.84410110  0.36550570  0.25144046  1  -0.006119  0  -0.023331  -0.034257  0  3.985125  0
C  C99  1  0.82218035  0.31402949  0.34968301  1  -0.033921  0  -0.094583  -0.107007  0  4.013625  0
C  C100  1  0.81652649  0.21031362  0.36126389  1  -0.070013  0  -0.095039  -0.139956  0  4.010369  0
C  C101  1  0.84980723  0.47858567  0.24061214  1  1.567062  0  0.21178  0.584918  0  4.178465  0
C  C102  1  0.87581650  0.76700594  0.91153446  1  0.513408  0  0.059658  0.105275  0  3.920292  0
C  C103  1  0.86875798  0.77230764  0.81367072  1  -0.048965  0  -0.074748  -0.167494  0  3.942367  0
C  C104  1  0.86492459  0.68224656  0.76980406  1  -0.003613  0  0.016475  0.101596  0  3.979951  0
C  C105  1  0.85193052  0.68277585  0.66822130  1  -0.029982  0  0.019642  0.113453  0  3.968851  0
C  C106  1  0.87068749  0.59019239  0.82767856  1  -0.023418  0  -0.0754  -0.157917  0  3.913172  0
C  C107  1  0.87903984  0.59061527  0.92456428  1  0.507344  0  0.063654  0.118543  0  3.885497  0
C  C108  1  0.80452160  0.76974263  0.62626087  1  -0.02695  0  -0.075634  -0.17293  0  3.941386  0
C  C109  1  0.78956333  0.76612773  0.53234202  1  0.501998  0  0.061597  0.105438  0  3.923394  0
C  C110  1  0.86418842  0.59705673  0.51842119  1  0.46321  0  0.057279  0.103587  0  3.9181  0
C  C111  1  0.88296030  0.59499259  0.61114334  1  0.05294  0  -0.074069  -0.166398  0  3.918421  0
N  N112  1  0.11943703  0.32220553  0.03380564  1  -1.255512  0  -0.320485  -0.20325  0  3.519901  0
N  N113  1  0.18175683  0.31899588  0.52052104  1  -1.244696  0  -0.318239  -0.197578  0  3.514403  0
N  N114  1  0.88057178  0.67779578  0.96618756  1  -1.256093  0  -0.320589  -0.203438  0  3.519953  0
N  N115  1  0.81824572  0.68101084  0.47947799  1  -1.244655  0  -0.318257  -0.197556  0  3.514328  0
O  O116  1  0.96194600  0.33673228  0.89634490  1  -1.162862  0  -0.310124  -0.537897  0  2.327855  0
O  O117  1  0.01505372  0.32668446  0.72416325  1  -1.187397  0  -0.320899  -0.568816  0  2.370283  0
O  O118  1  0.29353495  0.31061414  0.83053677  1  -1.185106  0  -0.320725  -0.560567  0  2.357244  0
O  O119  1  0.34587621  0.31261593  0.65721982  1  -1.152792  0  -0.319171  -0.5331  0  2.279206  0
O  O120  1  0.18884679  0.16334820  0.69983421  1  -1.172043  0  -0.319574  -0.553812  0  2.331624  0
O  O121  1  0.12914652  0.16923700  0.87289192  1  -1.176918  0  -0.313697  -0.549703  0  2.343273  0
O  O122  1  0.16814898  0.47582936  0.67746249  1  -1.175793  0  -0.317337  -0.551744  0  2.334472  0
O  O123  1  0.12740704  0.47910423  0.84940290  1  -1.173924  0  -0.313213  -0.546938  0  2.35436  0
O  O124  1  0.03805416  0.66326608  0.10365486  1  -1.162962  0  -0.310098  -0.537854  0  2.327918  0
O  O125  1  0.98494588  0.67331923  0.27583983  1  -1.187412  0  -0.320899  -0.56878  0  2.370268  0
O  O126  1  0.70646594  0.68938497  0.16946342  1  -1.185051  0  -0.320756  -0.560526  0  2.35722  0
O  O127  1  0.65411828  0.68737410  0.34278601  1  -1.152721  0  -0.319128  -0.533103  0  2.279108  0
O  O128  1  0.81114996  0.83664416  0.30016064  1  -1.172051  0  -0.319555  -0.553756  0  2.331732  0
O  O129  1  0.87085978  0.83075669  0.12710703  1  -1.176966  0  -0.313738  -0.549689  0  2.343357  0
O  O130  1  0.83186029  0.52416650  0.32254399  1  -1.175719  0  -0.317373  -0.551797  0  2.334175  0
O  O131  1  0.87259176  0.52089104  0.15060475  1  -1.174156  0  -0.313221  -0.54701  0  2.354351  0
