# generated using pymatgen
data_AlH17(C6O)5
_symmetry_space_group_name_H-M   'P 1'
_cell_length_a   6.94306797
_cell_length_b   18.76535933
_cell_length_c   22.63821006
_cell_angle_alpha   89.99938516
_cell_angle_beta   89.99972421
_cell_angle_gamma   90.00226976
_symmetry_Int_Tables_number   1
_chemical_formula_structural   AlH17(C6O)5
_chemical_formula_sum   'Al4 H68 C120 O20'
_cell_volume   2949.51349061
_cell_formula_units_Z   4
loop_
 _symmetry_equiv_pos_site_id
 _symmetry_equiv_pos_as_xyz
  1  'x, y, z'
loop_
 _atom_site_type_symbol
 _atom_site_label
 _atom_site_symmetry_multiplicity
 _atom_site_fract_x
 _atom_site_fract_y
 _atom_site_fract_z
 _atom_site_occupancy
 _atom_site_pbe_bader_charge
 _atom_site_pbe_bader_spin_density
 _atom_site_pbe_cm5_charge
 _atom_site_pbe_ddec_charge
 _atom_site_pbe_ddec_spin_density
 _atom_site_pbe_ddec_sum_bond_order
 _atom_site_pbe_magmom
Al  Al0  1  0.21598244  0.75109863  0.24672230  1  2.493937  0  0.406065  1.642635  0  2.540358  0
Al  Al1  1  0.78406780  0.24890848  0.74672616  1  2.494113  0  0.406101  1.642763  0  2.540032  0
Al  Al2  1  0.71597310  0.74890376  0.25326682  1  2.494399  0  0.406052  1.642839  0  2.540035  0
Al  Al3  1  0.28405263  0.25110123  0.75326969  1  2.494293  0  0.406  1.642794  0  2.540233  0
H  H4  1  0.23811435  0.57904598  0.63305967  1  0.044524  0  0.098754  0.101312  0  0.995816  0
H  H5  1  0.01569636  0.41583317  0.35731136  1  0.05412  0  0.097877  0.098826  0  0.998584  0
H  H6  1  0.76205594  0.42095984  0.13307753  1  0.044508  0  0.098642  0.101202  0  0.996071  0
H  H7  1  0.98439514  0.58416190  0.85731404  1  0.054141  0  0.097855  0.0988  0  0.99861  0
H  H8  1  0.73800529  0.92096838  0.86691702  1  0.043925  0  0.098658  0.101183  0  0.995939  0
H  H9  1  0.51567080  0.08416504  0.14267988  1  0.054377  0  0.097853  0.098844  0  0.998713  0
H  H10  1  0.26212794  0.07903843  0.36691485  1  0.044453  0  0.098615  0.101018  0  0.99618  0
H  H11  1  0.48446776  0.91583121  0.64267748  1  0.05433  0  0.097909  0.098853  0  0.998597  0
H  H12  1  0.13937515  0.45872302  0.67045392  1  0.040784  0  0.101973  0.105568  0  0.996309  0
H  H13  1  0.96260557  0.54235760  0.32948873  1  0.039233  0  0.101653  0.105488  0  0.994326  0
H  H14  1  0.86069416  0.54128394  0.17045377  1  0.040792  0  0.101896  0.10556  0  0.996329  0
H  H15  1  0.03742413  0.45764061  0.82949402  1  0.039371  0  0.101682  0.10554  0  0.994442  0
H  H16  1  0.63935592  0.04129458  0.82953788  1  0.040784  0  0.10191  0.105523  0  0.996408  0
H  H17  1  0.46265062  0.95763847  0.17050374  1  0.038879  0  0.101648  0.105522  0  0.994516  0
H  H18  1  0.36070691  0.95872229  0.32954161  1  0.040591  0  0.101891  0.105438  0  0.996425  0
H  H19  1  0.53741292  0.04235783  0.67050864  1  0.039343  0  0.101683  0.10557  0  0.994436  0
H  H20  1  0.22901065  0.66762874  0.55424784  1  0.109031  0  0.101826  0.104829  0  1.036493  0
H  H21  1  0.06177211  0.32572021  0.43366228  1  0.037427  0  0.100858  0.101645  0  1.037602  0
H  H22  1  0.77107358  0.33237267  0.05426692  1  0.109356  0  0.101824  0.10478  0  1.036315  0
H  H23  1  0.93830753  0.67427980  0.93365806  1  0.037354  0  0.100789  0.101434  0  1.037644  0
H  H24  1  0.72893402  0.83237696  0.94572578  1  0.109342  0  0.101824  0.104671  0  1.036456  0
H  H25  1  0.56174020  0.17428137  0.06633193  1  0.037613  0  0.100745  0.101411  0  1.037719  0
H  H26  1  0.27114412  0.16762308  0.44572985  1  0.109745  0  0.101892  0.104813  0  1.036176  0
H  H27  1  0.43839007  0.82571740  0.56633226  1  0.037509  0  0.100806  0.101475  0  1.037553  0
H  H28  1  0.13690813  0.23329003  0.62438486  1  0.071071  0  0.106367  0.094165  0  1.083827  0
H  H29  1  0.07089067  0.10874673  0.61161613  1  0.038734  0  0.097974  0.094036  0  0.999711  0
H  H30  1  0.91143633  0.06396421  0.51932463  1  0.058563  0  0.097428  0.092167  0  1.00767  0
H  H31  1  0.80739188  0.15224888  0.44345440  1  0.024796  0  0.095697  0.089976  0  1.001669  0
H  H32  1  0.84374821  0.27935359  0.46116611  1  0.070291  0  0.094852  0.091138  0  1.067588  0
H  H33  1  0.01493823  0.77481484  0.37324691  1  0.100879  0  0.109586  0.100279  0  1.069597  0
H  H34  1  0.97227186  0.89664726  0.39870370  1  0.079321  0  0.101352  0.099383  0  0.988439  0
H  H35  1  0.97001672  0.93639398  0.50452441  1  0.05048  0  0.099445  0.09505  0  1.004244  0
H  H36  1  0.99174717  0.84353163  0.58350634  1  0.047326  0  0.096058  0.089439  0  0.996321  0
H  H37  1  0.00163248  0.71852237  0.55820643  1  0.067162  0  0.097093  0.091497  0  1.051051  0
H  H38  1  0.86312538  0.76671951  0.12437244  1  0.071426  0  0.106352  0.094285  0  1.083831  0
H  H39  1  0.92915009  0.89126439  0.11159630  1  0.039117  0  0.097997  0.093979  0  0.999783  0
H  H40  1  0.08862645  0.93603660  0.01930916  1  0.058293  0  0.097415  0.092183  0  1.007689  0
H  H41  1  0.19267763  0.84775382  0.94344257  1  0.052408  0  0.095604  0.08991  0  1.001783  0
H  H42  1  0.15633274  0.72064701  0.96115945  1  0.059423  0  0.094861  0.091081  0  1.067549  0
H  H43  1  0.98502358  0.22516853  0.87327059  1  0.100697  0  0.109552  0.100352  0  1.069102  0
H  H44  1  0.02772151  0.10334150  0.89874715  1  0.074208  0  0.101394  0.099671  0  0.988135  0
H  H45  1  0.03004181  0.06361799  0.00457348  1  0.050516  0  0.099261  0.094814  0  1.004328  0
H  H46  1  0.00837437  0.15649808  0.08354043  1  0.046689  0  0.095981  0.08933  0  0.996447  0
H  H47  1  0.99852375  0.28150197  0.05822017  1  0.066435  0  0.097161  0.091678  0  1.050679  0
H  H48  1  0.63691732  0.26672168  0.87562064  1  0.071283  0  0.106366  0.094298  0  1.083784  0
H  H49  1  0.57089661  0.39126609  0.88839440  1  0.039016  0  0.097994  0.094038  0  0.999736  0
H  H50  1  0.41139426  0.43603308  0.98068018  1  0.058615  0  0.097461  0.092224  0  1.007631  0
H  H51  1  0.30732547  0.34774317  0.05654581  1  0.052715  0  0.095704  0.089992  0  1.001757  0
H  H52  1  0.34368483  0.22063742  0.03882694  1  0.059824  0  0.094872  0.091152  0  1.067643  0
H  H53  1  0.51500194  0.72517379  0.12672682  1  0.100678  0  0.109572  0.100252  0  1.06931  0
H  H54  1  0.47231296  0.60334684  0.10125782  1  0.074421  0  0.101464  0.099713  0  0.988258  0
H  H55  1  0.46997135  0.56361383  0.99543402  1  0.050447  0  0.09932  0.094921  0  1.004292  0
H  H56  1  0.49162085  0.65649411  0.91646088  1  0.047121  0  0.095964  0.089348  0  0.996513  0
H  H57  1  0.50149165  0.78149794  0.94177704  1  0.066366  0  0.097075  0.091557  0  1.050672  0
H  H58  1  0.36312513  0.73327982  0.37562735  1  0.07133  0  0.106387  0.094278  0  1.083744  0
H  H59  1  0.42912274  0.60873384  0.38840597  1  0.039098  0  0.097956  0.093972  0  0.999884  0
H  H60  1  0.58865925  0.56396703  0.48068558  1  0.058692  0  0.097439  0.092218  0  1.007609  0
H  H61  1  0.69277027  0.65225665  0.55654219  1  0.05294  0  0.095665  0.089958  0  1.001728  0
H  H62  1  0.65642395  0.77936183  0.53882142  1  0.059304  0  0.094868  0.091162  0  1.067729  0
H  H63  1  0.48499842  0.27483735  0.62673005  1  0.100583  0  0.109565  0.100374  0  1.069267  0
H  H64  1  0.52768320  0.39666532  0.60125377  1  0.07442  0  0.101376  0.099665  0  0.988197  0
H  H65  1  0.53006769  0.43638630  0.49542434  1  0.050479  0  0.099286  0.094894  0  1.004266  0
H  H66  1  0.50846895  0.34349575  0.41645877  1  0.047006  0  0.095907  0.089318  0  0.996335  0
H  H67  1  0.49861964  0.21849463  0.44178751  1  0.066268  0  0.097215  0.091772  0  1.050698  0
H  H68  1  0.46119481  0.65560489  0.25750644  1  0.600451  0  0.348511  0.427267  0  0.853142  0
H  H69  1  0.53882801  0.34440650  0.75748745  1  0.600533  0  0.348461  0.42729  0  0.85319  0
H  H70  1  0.96122546  0.84440555  0.24251607  1  0.600569  0  0.348566  0.427315  0  0.853234  0
H  H71  1  0.03880751  0.15560049  0.74251388  1  0.600703  0  0.348463  0.427279  0  0.853154  0
C  C72  1  0.46277194  0.82951212  0.33126723  1  1.577315  0  0.273245  0.66094  0  4.083448  0
C  C73  1  0.52820326  0.17460036  0.66553129  1  1.575503  0  0.275948  0.663251  0  4.079157  0
C  C74  1  0.53725343  0.17049089  0.83127101  1  1.578129  0  0.273203  0.661142  0  4.084135  0
C  C75  1  0.47183150  0.82539966  0.16553022  1  1.575365  0  0.275894  0.662916  0  4.07962  0
C  C76  1  0.96277663  0.67049302  0.16872126  1  1.577638  0  0.273096  0.660853  0  4.084069  0
C  C77  1  0.02820534  0.32539794  0.83446521  1  1.575462  0  0.276107  0.663351  0  4.078981  0
C  C78  1  0.03726244  0.32951501  0.66872503  1  1.578522  0  0.273204  0.660999  0  4.084233  0
C  C79  1  0.97183442  0.67459495  0.33445604  1  1.575256  0  0.2757  0.662779  0  4.079823  0
C  C80  1  0.02888544  0.34708284  0.55490580  1  0.072725  0  0.010669  0.014671  0  3.860501  0
C  C81  1  0.03285202  0.65516800  0.44750567  1  0.069981  0  0.011211  0.011552  0  3.851595  0
C  C82  1  0.97118726  0.65292017  0.05490191  1  0.072216  0  0.01063  0.014921  0  3.860283  0
C  C83  1  0.96720451  0.34483098  0.94751474  1  0.070007  0  0.01113  0.011454  0  3.851734  0
C  C84  1  0.52885542  0.15292133  0.94509247  1  0.071881  0  0.01068  0.015014  0  3.860649  0
C  C85  1  0.53284035  0.84483157  0.05248082  1  0.070902  0  0.011212  0.011398  0  3.85167  0
C  C86  1  0.47120689  0.84707924  0.44509010  1  0.072687  0  0.010766  0.015356  0  3.859982  0
C  C87  1  0.46723524  0.15517250  0.55248551  1  0.070365  0  0.011126  0.01124  0  3.851952  0
C  C88  1  0.05511998  0.37283641  0.61334742  1  0.0109  0  -0.008123  -0.071319  0  3.959769  0
C  C89  1  0.99310795  0.63031997  0.38939850  1  -0.040083  0  -0.006498  -0.065241  0  3.943225  0
C  C90  1  0.94494670  0.62717311  0.11334541  1  0.011412  0  -0.008123  -0.071301  0  3.959689  0
C  C91  1  0.00693445  0.36967409  0.88940556  1  -0.040022  0  -0.006407  -0.06517  0  3.943469  0
C  C92  1  0.55508760  0.12717617  0.88665034  1  0.011098  0  -0.008164  -0.071633  0  3.959928  0
C  C93  1  0.49311985  0.86967391  0.11058903  1  -0.040744  0  -0.006405  -0.065018  0  3.943259  0
C  C94  1  0.44495768  0.87282536  0.38664622  1  0.011132  0  -0.008302  -0.07177  0  3.959754  0
C  C95  1  0.50694252  0.13032335  0.61059188  1  -0.040138  0  -0.006461  -0.065178  0  3.943542  0
C  C96  1  0.10606066  0.44318025  0.62510821  1  -0.076999  0  -0.090298  -0.162094  0  3.997134  0
C  C97  1  0.98761107  0.55813585  0.37530754  1  -0.065075  0  -0.092537  -0.170988  0  3.999049  0
C  C98  1  0.89403045  0.55682982  0.12511033  1  -0.076931  0  -0.090167  -0.162197  0  3.997407  0
C  C99  1  0.01242131  0.44186032  0.87531275  1  -0.064995  0  -0.092706  -0.17129  0  3.999344  0
C  C100  1  0.60602696  0.05683843  0.87488191  1  -0.077572  0  -0.090313  -0.162133  0  3.997601  0
C  C101  1  0.48762591  0.94186008  0.12468310  1  -0.064657  0  -0.092703  -0.171442  0  3.99895  0
C  C102  1  0.39404287  0.94316786  0.37488408  1  -0.076596  0  -0.090237  -0.161954  0  3.997413  0
C  C103  1  0.51244360  0.05813720  0.62468732  1  -0.064731  0  -0.092753  -0.171417  0  3.999266  0
C  C104  1  0.11183746  0.49440123  0.58047698  1  0.006439  0  -0.015671  0.074688  0  4.102648  0
C  C105  1  0.01318747  0.50531297  0.41800567  1  0.041394  0  -0.013718  0.079137  0  4.100922  0
C  C106  1  0.88826969  0.50560503  0.08048274  1  0.005179  0  -0.015622  0.074742  0  4.102644  0
C  C107  1  0.98686056  0.49468754  0.91800786  1  0.040715  0  -0.013689  0.079161  0  4.101124  0
C  C108  1  0.61179116  0.00561275  0.91951047  1  0.007208  0  -0.015596  0.074661  0  4.102713  0
C  C109  1  0.51317503  0.99469109  0.08198749  1  0.041844  0  -0.013584  0.079558  0  4.100394  0
C  C110  1  0.38831015  0.99439470  0.41951345  1  0.004951  0  -0.015488  0.07465  0  4.102499  0
C  C111  1  0.48691483  0.00531037  0.58198925  1  0.040271  0  -0.013634  0.079504  0  4.100705  0
C  C112  1  0.06652945  0.47315103  0.52180652  1  -0.020482  0  0.002116  -0.001916  0  3.911597  0
C  C113  1  0.05137904  0.52681838  0.47707193  1  0.044804  0  0.00061  -0.00413  0  3.910882  0
C  C114  1  0.93355060  0.52685245  0.02180867  1  -0.020119  0  0.002103  -0.001984  0  3.912002  0
C  C115  1  0.94868889  0.47318758  0.97707727  1  0.04497  0  0.000556  -0.004022  0  3.911264  0
C  C116  1  0.56649513  0.02685799  0.97818414  1  -0.02028  0  0.002007  -0.001832  0  3.911564  0
C  C117  1  0.55135172  0.97319161  0.02291761  1  0.044765  0  0.000631  -0.00423  0  3.910962  0
C  C118  1  0.43358863  0.97314584  0.47818696  1  -0.019616  0  0.002169  -0.001749  0  3.912021  0
C  C119  1  0.44874129  0.02681241  0.52292038  1  0.044855  0  0.000479  -0.004231  0  3.911293  0
C  C120  1  0.04266450  0.39877443  0.50836583  1  -0.01687  0  0.001927  0.039983  0  3.937428  0
C  C121  1  0.07768527  0.60110121  0.49041323  1  -0.038117  0  0.001821  0.03928  0  3.92295  0
C  C122  1  0.95741273  0.60122689  0.00836429  1  -0.016461  0  0.001857  0.039681  0  3.937252  0
C  C123  1  0.92237971  0.39890371  0.99042226  1  -0.038236  0  0.001845  0.039341  0  3.922881  0
C  C124  1  0.54262182  0.10123049  0.99162754  1  -0.0166  0  0.001709  0.03953  0  3.937794  0
C  C125  1  0.57766056  0.89890705  0.00957226  1  -0.038713  0  0.001818  0.039326  0  3.922633  0
C  C126  1  0.45746476  0.89876963  0.49162996  1  -0.016619  0  0.001578  0.039217  0  3.937564  0
C  C127  1  0.42242387  0.10109587  0.50957898  1  -0.038313  0  0.001786  0.039261  0  3.923292  0
C  C128  1  0.17388856  0.56582002  0.59041340  1  -0.070531  0  -0.09849  -0.146043  0  4.03209  0
C  C129  1  0.02033764  0.43132296  0.40380428  1  -0.124807  0  -0.098916  -0.146877  0  4.034548  0
C  C130  1  0.82623007  0.43418786  0.09042598  1  -0.07008  0  -0.098486  -0.145859  0  4.032167  0
C  C131  1  0.97973349  0.56867593  0.90380506  1  -0.124349  0  -0.098799  -0.146828  0  4.034511  0
C  C132  1  0.67382386  0.93419496  0.90956875  1  -0.071493  0  -0.0984  -0.145802  0  4.031963  0
C  C133  1  0.52030784  0.06868065  0.09618871  1  -0.12484  0  -0.09881  -0.146905  0  4.034376  0
C  C134  1  0.32628325  0.06581407  0.40957198  1  -0.069671  0  -0.098569  -0.145698  0  4.031887  0
C  C135  1  0.47980645  0.93132031  0.59618913  1  -0.125723  0  -0.098702  -0.146841  0  4.034235  0
C  C136  1  0.16276356  0.61606140  0.54696338  1  -0.061478  0  -0.093024  -0.128024  0  4.034151  0
C  C137  1  0.04104773  0.38077523  0.44668887  1  0.010617  0  -0.091248  -0.122557  0  4.031563  0
C  C138  1  0.83732214  0.38394320  0.04697823  1  -0.061175  0  -0.092912  -0.128058  0  4.034117  0
C  C139  1  0.95903041  0.61922534  0.94668741  1  0.010032  0  -0.091178  -0.122106  0  4.030979  0
C  C140  1  0.66271373  0.88394754  0.95301703  1  -0.060636  0  -0.09283  -0.127719  0  4.033693  0
C  C141  1  0.54100884  0.11922923  0.05330274  1  0.010125  0  -0.091101  -0.122213  0  4.031407  0
C  C142  1  0.33738310  0.11605571  0.45302235  1  -0.061965  0  -0.092794  -0.127824  0  4.033917  0
C  C143  1  0.45910276  0.88077112  0.55330550  1  0.01143  0  -0.09115  -0.122147  0  4.030979  0
C  C144  1  0.99627521  0.26973712  0.54405243  1  -0.045755  0  -0.008328  0.067749  0  3.949034  0
C  C145  1  0.05515541  0.21823769  0.58557771  1  0.002758  0  -0.088211  -0.117482  0  3.945648  0
C  C146  1  0.02221386  0.14573682  0.57764672  1  -0.049055  0  -0.091949  -0.069632  0  4.016576  0
C  C147  1  0.93540123  0.12077013  0.52620976  1  -0.037144  0  -0.093146  -0.08316  0  4.026989  0
C  C148  1  0.87931047  0.17017186  0.48364239  1  -0.106112  0  -0.099068  -0.090785  0  4.052634  0
C  C149  1  0.90569009  0.24291408  0.49294717  1  0.019152  0  -0.096321  -0.133347  0  3.984768  0
C  C150  1  0.02216754  0.73234897  0.46314399  1  0.003369  0  -0.003918  0.072571  0  3.934482  0
C  C151  1  0.00774592  0.78631261  0.42002833  1  -0.015838  0  -0.084192  -0.111897  0  3.91364  0
C  C152  1  0.98542251  0.85802623  0.43441359  1  -0.143283  0  -0.087458  -0.066206  0  4.007993  0
C  C153  1  0.98346904  0.88018412  0.49310574  1  0.035485  0  -0.090395  -0.081099  0  4.022917  0
C  C154  1  0.99786484  0.82837764  0.53700368  1  -0.121368  0  -0.098578  -0.090857  0  4.056754  0
C  C155  1  0.01165887  0.75652062  0.52228625  1  -0.031575  0  -0.093098  -0.131242  0  3.979202  0
C  C156  1  0.00379322  0.73026746  0.04404729  1  -0.043896  0  -0.008294  0.067612  0  3.949062  0
C  C157  1  0.94489412  0.78177071  0.08556656  1  0.000923  0  -0.088528  -0.118271  0  3.945865  0
C  C158  1  0.97783714  0.85427210  0.07763101  1  -0.048633  0  -0.09167  -0.068823  0  4.015906  0
C  C159  1  0.06465864  0.87923229  0.02619544  1  -0.029568  0  -0.093315  -0.083542  0  4.027088  0
C  C160  1  0.12076174  0.82982932  0.98363019  1  -0.142352  0  -0.099119  -0.09098  0  4.053373  0
C  C161  1  0.09438640  0.75708818  0.99293996  1  0.030498  0  -0.096083  -0.132807  0  3.984882  0
C  C162  1  0.97789324  0.26765110  0.96316069  1  0.002641  0  -0.003791  0.072622  0  3.934412  0
C  C163  1  0.99225889  0.21367885  0.92005310  1  -0.013002  0  -0.084231  -0.112009  0  3.913493  0
C  C164  1  0.01458943  0.14196739  0.93445104  1  -0.139265  0  -0.087355  -0.066386  0  4.007831  0
C  C165  1  0.01658297  0.11982454  0.99314449  1  0.035642  0  -0.090328  -0.081006  0  4.022943  0
C  C166  1  0.00222955  0.17163919  0.03703529  1  -0.121581  0  -0.098534  -0.09071  0  4.056841  0
C  C167  1  0.98844566  0.24349406  0.02230781  1  -0.031098  0  -0.093248  -0.131493  0  3.978787  0
C  C168  1  0.49623973  0.23026360  0.95594333  1  -0.04507  0  -0.008322  0.06762  0  3.949329  0
C  C169  1  0.55515011  0.28176796  0.91442667  1  0.002119  0  -0.088331  -0.117718  0  3.945741  0
C  C170  1  0.52220580  0.35426939  0.92235907  1  -0.048709  0  -0.091812  -0.069461  0  4.016419  0
C  C171  1  0.43537070  0.37922646  0.97379543  1  -0.03733  0  -0.093287  -0.08328  0  4.027207  0
C  C172  1  0.37925827  0.32981970  0.01635941  1  -0.134249  0  -0.099141  -0.091018  0  4.053321  0
C  C173  1  0.40564351  0.25707895  0.00704927  1  0.029677  0  -0.096272  -0.133142  0  3.985175  0
C  C174  1  0.52214523  0.76765203  0.03683723  1  0.002817  0  -0.003825  0.07259  0  3.934313  0
C  C175  1  0.50778275  0.71368231  0.07994629  1  -0.013786  0  -0.084277  -0.111861  0  3.913585  0
C  C176  1  0.48544464  0.64197126  0.06555364  1  -0.138941  0  -0.087427  -0.066567  0  4.007772  0
C  C177  1  0.48344597  0.61982347  0.00686150  1  0.035605  0  -0.090341  -0.080982  0  4.022661  0
C  C178  1  0.49778593  0.67163806  0.96296705  1  -0.121514  0  -0.098537  -0.090935  0  4.056885  0
C  C179  1  0.51158604  0.74349399  0.97769101  1  -0.031332  0  -0.093177  -0.131225  0  3.978429  0
C  C180  1  0.50382253  0.76973699  0.45594192  1  -0.044997  0  -0.008223  0.067587  0  3.949227  0
C  C181  1  0.44489361  0.71823149  0.41443037  1  0.001751  0  -0.088488  -0.117957  0  3.945716  0
C  C182  1  0.47783068  0.64572954  0.42236584  1  -0.0488  0  -0.09173  -0.069166  0  4.016171  0
C  C183  1  0.56468139  0.62077097  0.47379627  1  -0.0377  0  -0.093259  -0.08317  0  4.026841  0
C  C184  1  0.62082613  0.67017844  0.51635607  1  -0.134443  0  -0.099153  -0.091265  0  4.053297  0
C  C185  1  0.59444381  0.74292184  0.50704548  1  0.030142  0  -0.096204  -0.133021  0  3.985331  0
C  C186  1  0.47792467  0.23234721  0.53684218  1  0.002662  0  -0.003957  0.072693  0  3.93465  0
C  C187  1  0.49225959  0.28631915  0.57994841  1  -0.013711  0  -0.08422  -0.111996  0  3.913737  0
C  C188  1  0.51458481  0.35803070  0.56555257  1  -0.138855  0  -0.087307  -0.066404  0  4.007671  0
C  C189  1  0.51661110  0.38017359  0.50685646  1  0.03567  0  -0.090399  -0.081231  0  4.022552  0
C  C190  1  0.50229358  0.32835348  0.46296525  1  -0.121344  0  -0.098391  -0.090364  0  4.056295  0
C  C191  1  0.48851357  0.25649812  0.47769724  1  -0.031217  0  -0.093209  -0.131767  0  3.978898  0
O  O192  1  0.63018006  0.81185361  0.19216034  1  -1.262299  0  -0.238219  -0.605805  0  2.356735  0
O  O193  1  0.36929256  0.18746234  0.81395918  1  -1.252435  0  -0.231115  -0.584517  0  2.334995  0
O  O194  1  0.36986466  0.18815180  0.69216067  1  -1.262709  0  -0.238272  -0.605844  0  2.356344  0
O  O195  1  0.63074873  0.81254170  0.31395707  1  -1.251949  0  -0.231016  -0.584317  0  2.334286  0
O  O196  1  0.13017266  0.68814427  0.30782766  1  -1.262323  0  -0.23801  -0.605561  0  2.357123  0
O  O197  1  0.86928854  0.31255188  0.68603558  1  -1.252477  0  -0.231129  -0.584474  0  2.335009  0
O  O198  1  0.86985858  0.31185390  0.80783585  1  -1.262611  0  -0.238348  -0.605896  0  2.356516  0
O  O199  1  0.13073173  0.68745885  0.18603668  1  -1.252026  0  -0.231032  -0.584227  0  2.33493  0
O  O200  1  0.30497234  0.81876661  0.30350165  1  -1.26796  0  -0.242402  -0.612628  0  2.356085  0
O  O201  1  0.69652288  0.18852627  0.68408276  1  -1.246009  0  -0.22711  -0.580253  0  2.346688  0
O  O202  1  0.69505459  0.18123741  0.80350482  1  -1.268419  0  -0.242335  -0.612645  0  2.35585  0
O  O203  1  0.30350603  0.81147912  0.18407620  1  -1.245928  0  -0.227081  -0.579942  0  2.346537  0
O  O204  1  0.80495927  0.68124142  0.19648194  1  -1.267944  0  -0.242301  -0.612637  0  2.355727  0
O  O205  1  0.19653804  0.31148102  0.81591685  1  -1.245987  0  -0.227185  -0.580322  0  2.346494  0
O  O206  1  0.19507247  0.31877572  0.69649347  1  -1.268369  0  -0.242378  -0.612715  0  2.355886  0
O  O207  1  0.80349460  0.68851290  0.31590430  1  -1.246209  0  -0.227117  -0.580161  0  2.346306  0
O  O208  1  0.46494503  0.70651628  0.25053853  1  -1.406239  0  -0.448767  -0.970419  0  2.115325  0
O  O209  1  0.53510230  0.29349031  0.75054040  1  -1.406191  0  -0.448652  -0.970381  0  2.11521  0
O  O210  1  0.96494456  0.79348783  0.24945482  1  -1.406354  0  -0.448851  -0.970495  0  2.115317  0
O  O211  1  0.03509559  0.20651663  0.74945741  1  -1.406309  0  -0.448624  -0.970369  0  2.115219  0
