# generated using pymatgen
data_InCuH16C24(NO2)4
_symmetry_space_group_name_H-M   'P 1'
_cell_length_a   12.23404964
_cell_length_b   12.85633861
_cell_length_c   13.90226085
_cell_angle_alpha   77.91614742
_cell_angle_beta   63.89765524
_cell_angle_gamma   61.58828225
_symmetry_Int_Tables_number   1
_chemical_formula_structural   InCuH16C24(NO2)4
_chemical_formula_sum   'In2 Cu2 H32 C48 N8 O16'
_cell_volume   1727.09054035
_cell_formula_units_Z   2
loop_
 _symmetry_equiv_pos_site_id
 _symmetry_equiv_pos_as_xyz
  1  'x, y, z'
loop_
 _atom_site_type_symbol
 _atom_site_label
 _atom_site_symmetry_multiplicity
 _atom_site_fract_x
 _atom_site_fract_y
 _atom_site_fract_z
 _atom_site_occupancy
 _atom_site_pbe_bader_charge
 _atom_site_pbe_bader_spin_density
 _atom_site_pbe_cm5_charge
 _atom_site_pbe_ddec_charge
 _atom_site_pbe_ddec_spin_density
 _atom_site_pbe_ddec_sum_bond_order
 _atom_site_pbe_magmom
In  In0  1  0.87495938  0.75008479  0.24999935  1  1.866731  0  0.724013  1.347448  0  2.593465  0
In  In1  1  0.12504120  0.24991673  0.75000029  1  1.86677  0  0.723993  1.347447  0  2.593477  0
Cu  Cu2  1  0.62496713  0.25006184  0.74999996  1  0.741545  0  0.595255  0.275405  0  2.540729  0
Cu  Cu3  1  0.37502762  0.74993968  0.25000180  1  0.741482  0  0.595251  0.275397  0  2.540781  0
H  H4  1  0.94458650  0.91571616  0.48790530  1  0.137987  0  0.109415  0.115488  0  1.017599  0
H  H5  1  0.56750338  0.58454420  0.48792990  1  0.115837  0  0.109303  0.116303  0  1.016539  0
H  H6  1  0.63970380  0.91571565  0.01209693  1  0.111909  0  0.109427  0.115477  0  1.017541  0
H  H7  1  0.34795039  0.58454517  0.01206948  1  0.107183  0  0.109295  0.116264  0  1.016559  0
H  H8  1  0.05541687  0.08428271  0.51209650  1  0.138036  0  0.109427  0.115472  0  1.017552  0
H  H9  1  0.43249082  0.41545732  0.51207151  1  0.115702  0  0.109304  0.116281  0  1.016596  0
H  H10  1  0.36029603  0.08428410  0.98790521  1  0.111693  0  0.109416  0.11548  0  1.017568  0
H  H11  1  0.65204730  0.41545812  0.98793122  1  0.107227  0  0.109277  0.116265  0  1.016578  0
H  H12  1  0.53543800  0.07232920  0.50697382  1  0.137667  0  0.114226  0.129774  0  1.009146  0
H  H13  1  0.95759804  0.42763826  0.50699622  1  0.140176  0  0.1153  0.131176  0  1.006981  0
H  H14  1  0.89223707  0.07233393  0.99302047  1  0.13649  0  0.11422  0.129713  0  1.009168  0
H  H15  1  0.11475968  0.42763821  0.99300901  1  0.124282  0  0.115294  0.131175  0  1.00693  0
H  H16  1  0.46456725  0.92766878  0.49302295  1  0.137611  0  0.114235  0.129745  0  1.009159  0
H  H17  1  0.04239740  0.57236149  0.49300303  1  0.140324  0  0.11529  0.131171  0  1.006907  0
H  H18  1  0.10776893  0.92766582  0.00697380  1  0.136824  0  0.114214  0.129731  0  1.009158  0
H  H19  1  0.88523824  0.57236066  0.00699635  1  0.124337  0  0.115295  0.131186  0  1.00691  0
H  H20  1  0.85904816  0.05110180  0.63775388  1  0.08205  0  0.113167  0.08021  0  1.009024  0
H  H21  1  0.50310465  0.44903175  0.63765056  1  0.111524  0  0.112941  0.079563  0  1.009575  0
H  H22  1  0.58984999  0.05110130  0.86225008  1  0.080008  0  0.113152  0.080194  0  1.009124  0
H  H23  1  0.54785993  0.44903285  0.86234821  1  0.113516  0  0.112949  0.079652  0  1.009522  0
H  H24  1  0.14095095  0.94889795  0.36224897  1  0.082095  0  0.113146  0.080156  0  1.009118  0
H  H25  1  0.49689236  0.55096888  0.36235121  1  0.111593  0  0.112957  0.079597  0  1.009564  0
H  H26  1  0.41014995  0.94889934  0.13775242  1  0.07995  0  0.113154  0.080192  0  1.009092  0
H  H27  1  0.45213554  0.55096867  0.13765284  1  0.113464  0  0.112954  0.079615  0  1.009518  0
H  H28  1  0.46825390  0.20483641  0.64976500  1  0.160521  0  0.119583  0.102713  0  1.028341  0
H  H29  1  0.88187236  0.29512998  0.64972098  1  0.158049  0  0.118732  0.101417  0  1.026089  0
H  H30  1  0.82690633  0.20484092  0.85023064  1  0.125434  0  0.119582  0.10267  0  1.02835  0
H  H31  1  0.32299513  0.29512963  0.85028108  1  0.138379  0  0.118717  0.101381  0  1.026096  0
H  H32  1  0.53174864  0.79516334  0.35023176  1  0.160502  0  0.11961  0.102746  0  1.028254  0
H  H33  1  0.11812395  0.70487242  0.35027971  1  0.158013  0  0.118723  0.101379  0  1.026144  0
H  H34  1  0.17309485  0.79515971  0.14976432  1  0.12551  0  0.11959  0.102714  0  1.028374  0
H  H35  1  0.67700260  0.70486923  0.14972177  1  0.13843  0  0.118731  0.101413  0  1.026036  0
C  C36  1  0.83862624  0.97909466  0.52225605  1  -0.048395  0  -0.07968  -0.139509  0  3.95942  0
C  C37  1  0.63905035  0.52108873  0.52230325  1  -0.070572  0  -0.080857  -0.143512  0  3.956983  0
C  C38  1  0.68228580  0.97909500  0.97774299  1  -0.023985  0  -0.07966  -0.13937  0  3.959405  0
C  C39  1  0.33985628  0.52108690  0.97769656  1  -0.056671  0  -0.080896  -0.14345  0  3.957142  0
C  C40  1  0.16137982  0.02090244  0.47774216  1  -0.048416  0  -0.079671  -0.139428  0  3.959517  0
C  C41  1  0.36094475  0.47891279  0.47769637  1  -0.070306  0  -0.080931  -0.143551  0  3.957053  0
C  C42  1  0.31771511  0.02090475  0.02225628  1  -0.02348  0  -0.079644  -0.139438  0  3.959388  0
C  C43  1  0.66013764  0.47891373  0.02230555  1  -0.056837  0  -0.080867  -0.143452  0  3.957108  0
C  C44  1  0.61144200  0.06617739  0.53150862  1  -0.060903  0  -0.069087  -0.121204  0  3.899713  0
C  C45  1  0.85704487  0.43384840  0.53149441  1  -0.003799  0  -0.069259  -0.121444  0  3.899636  0
C  C46  1  0.82238370  0.06618274  0.96848747  1  -0.023402  0  -0.069139  -0.121136  0  3.899325  0
C  C47  1  0.20910274  0.43384780  0.96850831  1  -0.036757  0  -0.069255  -0.121476  0  3.899592  0
C  C48  1  0.38856457  0.93381793  0.46848815  1  -0.060894  0  -0.069166  -0.121186  0  3.899579  0
C  C49  1  0.14295150  0.56615311  0.46850485  1  -0.00406  0  -0.069212  -0.121449  0  3.899647  0
C  C50  1  0.17762212  0.93381701  0.03150788  1  -0.023486  0  -0.06912  -0.121189  0  3.89954  0
C  C51  1  0.79089236  0.56615195  0.03149668  1  -0.03656  0  -0.069221  -0.121436  0  3.899573  0
C  C52  1  0.79163057  0.05377459  0.60470371  1  0.462203  0  0.033027  0.067964  0  3.971231  0
C  C53  1  0.60356860  0.44633690  0.60464221  1  0.431064  0  0.034219  0.072439  0  3.968394  0
C  C54  1  0.65459426  0.05377437  0.89529882  1  0.457604  0  0.032993  0.067888  0  3.971465  0
C  C55  1  0.45009080  0.44633851  0.89535908  1  0.434631  0  0.034222  0.072313  0  3.968278  0
C  C56  1  0.20836909  0.94622516  0.39529951  1  0.462159  0  0.033035  0.068004  0  3.971431  0
C  C57  1  0.39642560  0.55366462  0.39535920  1  0.430994  0  0.034243  0.072426  0  3.968443  0
C  C58  1  0.34540568  0.94622626  0.10470368  1  0.457636  0  0.033017  0.067937  0  3.971261  0
C  C59  1  0.54990562  0.55366478  0.10464198  1  0.434684  0  0.034205  0.072389  0  3.968472  0
C  C60  1  0.57287682  0.13965740  0.61258979  1  0.465546  0  0.045177  0.085364  0  3.909831  0
C  C61  1  0.81444426  0.36037183  0.61252957  1  0.456956  0  0.046285  0.087263  0  3.903526  0
C  C62  1  0.78746410  0.13966046  0.88740625  1  0.447159  0  0.045269  0.085498  0  3.909659  0
C  C63  1  0.32518158  0.36037284  0.88747211  1  0.464023  0  0.046321  0.087372  0  3.903779  0
C  C64  1  0.42712282  0.86034235  0.38740984  1  0.465499  0  0.045174  0.085355  0  3.909807  0
C  C65  1  0.18555238  0.63962881  0.38747076  1  0.457337  0  0.046289  0.087363  0  3.903667  0
C  C66  1  0.21254067  0.86033664  0.11258873  1  0.446899  0  0.045216  0.08539  0  3.909794  0
C  C67  1  0.67481698  0.63962691  0.11253038  1  0.463958  0  0.046257  0.08733  0  3.903491  0
C  C68  1  0.79474007  0.90357750  0.39719682  1  1.545231  0  0.214061  0.549017  0  4.212747  0
C  C69  1  0.80792142  0.59659366  0.39722718  1  1.52575  0  0.214485  0.55028  0  4.213919  0
C  C70  1  0.80170323  0.90358524  0.10279722  1  1.546453  0  0.214194  0.549175  0  4.211947  0
C  C71  1  0.09548141  0.59659676  0.10277435  1  1.527171  0  0.214579  0.550396  0  4.213956  0
C  C72  1  0.20527453  0.09641783  0.60279926  1  1.546032  0  0.21419  0.549223  0  4.212079  0
C  C73  1  0.19207903  0.40340520  0.60277389  1  1.525875  0  0.214561  0.550361  0  4.214009  0
C  C74  1  0.19830594  0.09641805  0.89720030  1  1.545749  0  0.214176  0.549192  0  4.212005  0
C  C75  1  0.90451308  0.40340565  0.89722634  1  1.527291  0  0.214459  0.550311  0  4.21411  0
C  C76  1  0.74706031  0.98488750  0.48434865  1  -0.018266  0  0.005131  0.019155  0  3.952765  0
C  C77  1  0.76853354  0.51525613  0.48440164  1  -0.000922  0  0.005042  0.018414  0  3.952615  0
C  C78  1  0.76805778  0.98488676  0.01564960  1  -0.004748  0  0.005179  0.019089  0  3.952666  0
C  C79  1  0.21620815  0.51525644  0.01559956  1  0.055301  0  0.00503  0.018379  0  3.952601  0
C  C80  1  0.25293981  0.01511313  0.51565278  1  -0.018263  0  0.005183  0.01913  0  3.952699  0
C  C81  1  0.23146101  0.48474539  0.51559761  1  -0.000946  0  0.005042  0.018389  0  3.952522  0
C  C82  1  0.23194495  0.01511300  0.98434968  1  -0.005088  0  0.00514  0.019109  0  3.952767  0
C  C83  1  0.78378981  0.48474596  0.98440222  1  0.055318  0  0.005037  0.01834  0  3.952601  0
N  N84  1  0.66106507  0.13432266  0.64914939  1  -1.223229  0  -0.356086  -0.213447  0  3.658651  0
N  N85  1  0.68972398  0.36570033  0.64903963  1  -1.222096  0  -0.356687  -0.215351  0  3.652601  0
N  N86  1  0.70461060  0.13432470  0.85084987  1  -1.215772  0  -0.356114  -0.213548  0  3.658799  0
N  N87  1  0.44457189  0.36569980  0.85096061  1  -1.230066  0  -0.356715  -0.215371  0  3.65268  0
N  N88  1  0.33893800  0.86567532  0.35084952  1  -1.223264  0  -0.356121  -0.213529  0  3.658773  0
N  N89  1  0.31027204  0.63430119  0.35096178  1  -1.222532  0  -0.356705  -0.21537  0  3.652697  0
N  N90  1  0.29538987  0.86567594  0.14914940  1  -1.215634  0  -0.356093  -0.213449  0  3.658712  0
N  N91  1  0.55542374  0.63429995  0.14904116  1  -1.23012  0  -0.356671  -0.215409  0  3.65262  0
O  O92  1  0.70756723  0.89082119  0.37968257  1  -1.137945  0  -0.287676  -0.537167  0  2.176692  0
O  O93  1  0.91261607  0.60938360  0.37967120  1  -1.140905  0  -0.287946  -0.537481  0  2.175337  0
O  O94  1  0.90162594  0.89082556  0.12031324  1  -1.142577  0  -0.28763  -0.53712  0  2.176514  0
O  O95  1  0.97799507  0.60937957  0.12032822  1  -1.135303  0  -0.287983  -0.53758  0  2.175171  0
O  O96  1  0.29244802  0.10917503  0.62031423  1  -1.13857  0  -0.287637  -0.53716  0  2.176222  0
O  O97  1  0.08737732  0.39061880  0.62032877  1  -1.140973  0  -0.287967  -0.537547  0  2.175217  0
O  O98  1  0.09837708  0.10917508  0.87968532  1  -1.142121  0  -0.28763  -0.537152  0  2.176242  0
O  O99  1  0.02200024  0.39061753  0.87967246  1  -1.135262  0  -0.287954  -0.537533  0  2.175254  0
O  O100  1  0.92135287  0.84705441  0.34279538  1  -1.154606  0  -0.291142  -0.543917  0  2.190738  0
O  O101  1  0.73570881  0.65304961  0.34282768  1  -1.152294  0  -0.291316  -0.544924  0  2.192232  0
O  O102  1  0.73160802  0.84705637  0.15720368  1  -1.146563  0  -0.291311  -0.54415  0  2.19029  0
O  O103  1  0.11123245  0.65304862  0.15717021  1  -1.158598  0  -0.291351  -0.544889  0  2.192599  0
O  O104  1  0.07866196  0.15294269  0.65720502  1  -1.15484  0  -0.291285  -0.544117  0  2.190599  0
O  O105  1  0.26428427  0.34695191  0.65716942  1  -1.152245  0  -0.291332  -0.544867  0  2.192573  0
O  O106  1  0.26839399  0.15294338  0.84279631  1  -1.146312  0  -0.291275  -0.544099  0  2.190643  0
O  O107  1  0.88876037  0.34695202  0.84283119  1  -1.158796  0  -0.291282  -0.544861  0  2.192497  0
