# generated using pymatgen
data_CuH11C17BrN2O3
_symmetry_space_group_name_H-M   'P 1'
_cell_length_a   10.56720817
_cell_length_b   19.08977497
_cell_length_c   19.09034055
_cell_angle_alpha   116.67304939
_cell_angle_beta   100.63436528
_cell_angle_gamma   100.63436643
_symmetry_Int_Tables_number   1
_chemical_formula_structural   CuH11C17BrN2O3
_chemical_formula_sum   'Cu6 H66 C102 Br6 N12 O18'
_cell_volume   3221.53684203
_cell_formula_units_Z   6
loop_
 _symmetry_equiv_pos_site_id
 _symmetry_equiv_pos_as_xyz
  1  'x, y, z'
loop_
 _atom_site_type_symbol
 _atom_site_label
 _atom_site_symmetry_multiplicity
 _atom_site_fract_x
 _atom_site_fract_y
 _atom_site_fract_z
 _atom_site_occupancy
 _atom_site_pbe_bader_charge
 _atom_site_pbe_bader_spin_density
 _atom_site_pbe_cm5_charge
 _atom_site_pbe_ddec_charge
 _atom_site_pbe_ddec_spin_density
 _atom_site_pbe_ddec_sum_bond_order
 _atom_site_pbe_magmom
Cu  Cu0  1  0.04884994  0.59815166  0.23096632  1  1.098773  -0.578481  0.720036  0.784098  -0.74818  2.333488  -0.578
Cu  Cu1  1  0.45080429  0.63283135  0.40187826  1  1.099125  0.579962  0.721814  0.786294  0.77278  2.333508  0.579
Cu  Cu2  1  0.81802854  0.76901694  0.36713273  1  1.099913  -0.585291  0.722036  0.786727  -0.757154  2.333435  -0.584
Cu  Cu3  1  0.95114986  0.40184789  0.76903348  1  1.098812  -0.578483  0.720004  0.784039  -0.748183  2.333491  -0.578
Cu  Cu4  1  0.54919643  0.36717005  0.59812246  1  1.099133  0.579959  0.721795  0.786307  0.772777  2.333474  0.579
Cu  Cu5  1  0.18197222  0.23098261  0.63286769  1  1.099921  -0.58529  0.722062  0.786816  -0.757151  2.333286  -0.584
H  H6  1  0.43343199  0.29111640  0.91822075  1  0.073579  -0.000841  0.097976  0.102918  -0.000433  1.048609  0.0
H  H7  1  0.14229376  0.62705492  0.70884803  1  0.062697  -0.00082  0.098017  0.103201  -0.000422  1.047852  0.0
H  H8  1  0.51524311  0.08177179  0.37291104  1  0.107481  0.000815  0.098172  0.103089  0.000445  1.04848  0.0
H  H9  1  0.56656685  0.70888315  0.08177947  1  0.073591  -0.000841  0.097977  0.102909  -0.000433  1.048619  0.0
H  H10  1  0.85770635  0.37294525  0.29115155  1  0.06271  -0.000821  0.098031  0.103236  -0.000422  1.047828  0.0
H  H11  1  0.48475669  0.91822776  0.62708771  1  0.107488  0.000815  0.098188  0.10315  0.000445  1.048442  0.0
H  H12  1  0.57923327  0.47523424  0.85473765  1  0.116312  -0.000793  0.105208  0.110387  -0.000407  1.049036  0.0
H  H13  1  0.10399272  0.37947713  0.52469300  1  0.11692  -0.00077  0.104201  0.109715  -0.00041  1.049498  0.0
H  H14  1  0.72455029  0.14520229  0.62048856  1  0.081754  0.000831  0.10543  0.109922  0.000457  1.049174  0.0
H  H15  1  0.42076653  0.52476531  0.14526268  1  0.116296  -0.000794  0.105266  0.11046  -0.000407  1.049077  0.0
H  H16  1  0.89600642  0.62052304  0.47530701  1  0.116918  -0.00077  0.104231  0.109792  -0.00041  1.04942  0.0
H  H17  1  0.27545078  0.85479787  0.37951165  1  0.081769  0.000831  0.105433  0.109925  0.000457  1.049192  0.0
H  H18  1  0.73173145  0.48170554  0.17480885  1  0.091738  6.7e-05  0.109222  0.074493  4.3e-05  1.014705  0.0
H  H19  1  0.25011363  0.69308753  0.51830758  1  0.077017  -7.9e-05  0.109136  0.074574  -5.1e-05  1.015363  0.0
H  H20  1  0.55701839  0.82517918  0.30688875  1  0.098114  9.2e-05  0.109286  0.074341  6.7e-05  1.015316  0.0
H  H21  1  0.26826738  0.51829401  0.82519033  1  0.091799  6.7e-05  0.109197  0.074412  4.3e-05  1.014765  0.0
H  H22  1  0.74988552  0.30691264  0.48169190  1  0.076858  -7.9e-05  0.109111  0.074507  -5.1e-05  1.015398  0.0
H  H23  1  0.44298141  0.17482037  0.69311105  1  0.098117  9.2e-05  0.109291  0.074331  6.7e-05  1.015304  0.0
H  H24  1  0.53312899  0.40313887  0.04917747  1  0.094838  -8e-06  0.102867  0.111069  -1.3e-05  1.02651  0.0
H  H25  1  0.13011119  0.64602812  0.59687147  1  0.077702  -6.8e-05  0.103635  0.111945  -3.9e-05  1.025907  0.0
H  H26  1  0.48408373  0.95080291  0.35394955  1  0.097965  7.5e-05  0.102688  0.112156  5e-05  1.025774  0.0
H  H27  1  0.46687304  0.59686130  0.95082178  1  0.094811  -8e-06  0.102854  0.111052  -1.3e-05  1.026524  0.0
H  H28  1  0.86988796  0.35397205  0.40312802  1  0.077706  -6.8e-05  0.10363  0.111934  -3.9e-05  1.025925  0.0
H  H29  1  0.51591638  0.04919726  0.64605055  1  0.097955  7.5e-05  0.102685  0.112171  5e-05  1.025715  0.0
H  H30  1  0.78042559  0.47867255  0.92257074  1  0.110257  -0.00013  0.111415  0.130089  -0.000139  1.024629  0.0
H  H31  1  0.30179750  0.44387463  0.52132733  1  0.14838  5.7e-05  0.10977  0.127638  9.4e-05  1.026817  0.0
H  H32  1  0.85791624  0.07740218  0.55609490  1  0.125402  -8.5e-05  0.111114  0.129326  -9.8e-05  1.02582  0.0
H  H33  1  0.21957355  0.52132762  0.07742979  1  0.110267  -0.00013  0.111423  0.13009  -0.000139  1.024622  0.0
H  H34  1  0.69820099  0.55612615  0.47867184  1  0.14833  5.7e-05  0.109769  0.127653  9.4e-05  1.026764  0.0
H  H35  1  0.14208544  0.92259922  0.44390697  1  0.125429  -8.4e-05  0.111113  0.129309  -9.8e-05  1.02587  0.0
H  H36  1  0.96642681  0.55786644  0.05608582  1  0.114521  0.000203  0.116584  0.088854  0.000152  1.006947  0.0
H  H37  1  0.40864878  0.49820228  0.44211511  1  0.124367  -0.000199  0.116676  0.08837  -0.000149  1.005546  0.0
H  H38  1  0.91042014  0.94387141  0.50179341  1  0.11682  0.000179  0.116288  0.089016  0.00014  1.00628  0.0
H  H39  1  0.03357202  0.44213311  0.94391388  1  0.11421  0.000203  0.116565  0.088864  0.000152  1.006956  0.0
H  H40  1  0.59135037  0.50179789  0.55788437  1  0.124365  -0.000199  0.116685  0.088368  -0.000149  1.005545  0.0
H  H41  1  0.08958062  0.05612814  0.49820597  1  0.116812  0.000179  0.116293  0.089021  0.00014  1.006286  0.0
H  H42  1  0.25375518  0.21629708  0.78274454  1  0.130564  -0.001527  0.121907  0.099252  -0.0007  0.990099  -0.001
H  H43  1  0.03745159  0.56635324  0.78362586  1  0.138928  -0.001392  0.122442  0.099584  -0.000616  0.990536  -0.001
H  H44  1  0.47114096  0.21725316  0.43361419  1  0.121202  0.001415  0.121985  0.098899  0.000644  0.989865  0.001
H  H45  1  0.74624396  0.78370309  0.21725599  1  0.130571  -0.001526  0.121905  0.099236  -0.0007  0.990097  -0.001
H  H46  1  0.96254978  0.43364754  0.21637413  1  0.138925  -0.001392  0.122478  0.099642  -0.000616  0.990561  -0.001
H  H47  1  0.52885914  0.78274701  0.56638592  1  0.121198  0.001415  0.121995  0.098904  0.000644  0.989879  0.001
H  H48  1  0.39726480  0.39070496  0.72074885  1  0.139274  -0.001952  0.119823  0.092773  -0.001042  1.040645  -0.002
H  H49  1  0.00648318  0.32996533  0.60917350  1  0.131669  -0.001361  0.118784  0.092599  -0.000473  1.040101  -0.001
H  H50  1  0.67663426  0.27923329  0.66999423  1  0.175166  0.001892  0.118717  0.091906  0.001081  1.041341  0.002
H  H51  1  0.60273500  0.60929459  0.27925147  1  0.139256  -0.001953  0.119814  0.09275  -0.001043  1.040659  -0.002
H  H52  1  0.99351693  0.67003483  0.39082609  1  0.131656  -0.001361  0.118756  0.092598  -0.000473  1.040128  -0.001
H  H53  1  0.32336681  0.72076688  0.33000545  1  0.175167  0.001892  0.118731  0.091931  0.001081  1.041316  0.002
H  H54  1  0.07250540  0.90083155  0.28607310  1  0.107968  -0.000883  0.106385  0.126754  -0.000652  1.000595  0.0
H  H55  1  0.17172127  0.38525696  0.09921257  1  0.109226  -9.5e-05  0.105838  0.125966  -0.000152  1.001153  0.0
H  H56  1  0.78641822  0.71395732  0.61469730  1  0.109493  0.000104  0.10582  0.125925  0.00017  1.000876  0.0
H  H57  1  0.92749567  0.09916862  0.71392711  1  0.107954  -0.000884  0.106365  0.126754  -0.000652  1.000574  0.0
H  H58  1  0.82827883  0.61474321  0.90078753  1  0.109212  -9.5e-05  0.105829  0.125974  -0.000151  1.001159  0.0
H  H59  1  0.21358442  0.28604408  0.38530257  1  0.109459  0.000104  0.105824  0.125932  0.00017  1.000867  0.0
H  H60  1  0.36681339  0.85728763  0.15452008  1  0.071428  -0.00105  0.102898  0.112248  -0.00054  0.987725  -0.001
H  H61  1  0.50957546  0.29722537  0.14270147  1  0.080987  0.001054  0.102953  0.111992  0.000557  0.989245  0.001
H  H62  1  0.21232153  0.84546100  0.70274824  1  0.080429  -0.001054  0.101986  0.111264  -0.00054  0.988149  -0.001
H  H63  1  0.63318768  0.14271254  0.84547961  1  0.07117  -0.00105  0.102908  0.112276  -0.00054  0.987725  -0.001
H  H64  1  0.49042338  0.70277418  0.85729876  1  0.081056  0.001054  0.102944  0.111993  0.000557  0.989231  0.001
H  H65  1  0.78767954  0.15453916  0.29725249  1  0.08044  -0.001054  0.101971  0.111203  -0.00054  0.988196  -0.001
H  H66  1  0.31882748  0.71600769  0.13421523  1  0.063962  -9.6e-05  0.09475  0.110414  -8.1e-05  1.037877  0.0
H  H67  1  0.60299951  0.41822822  0.28401276  1  0.056963  -0.000323  0.095151  0.110034  -0.000119  1.037641  0.0
H  H68  1  0.18475087  0.86577835  0.58176580  1  0.076983  0.000334  0.094761  0.109382  0.000129  1.037792  0.0
H  H69  1  0.68117262  0.28399248  0.86578435  1  0.063926  -9.6e-05  0.094749  0.1104  -8.2e-05  1.037894  0.0
H  H70  1  0.39699867  0.58177195  0.71598663  1  0.056948  -0.000323  0.095139  0.110008  -0.000119  1.037656  0.0
H  H71  1  0.81524989  0.13422120  0.41823463  1  0.076918  0.000333  0.094752  0.109383  0.000129  1.037807  0.0
C  C72  1  0.42969001  0.31625343  0.87694981  1  -0.015026  -0.004616  -0.083015  -0.171226  -0.003077  3.947508  -0.004
C  C73  1  0.11343178  0.56064430  0.68369528  1  0.043868  -0.004581  -0.083805  -0.172499  -0.003103  3.947701  -0.004
C  C74  1  0.55278557  0.12301222  0.43932465  1  -0.052152  0.004801  -0.08106  -0.171739  0.003295  3.946653  0.004
C  C75  1  0.57030979  0.68374612  0.12305052  1  -0.015114  -0.004615  -0.08304  -0.171234  -0.003077  3.947543  -0.004
C  C76  1  0.88656767  0.43935648  0.31630451  1  0.043822  -0.004581  -0.083828  -0.172536  -0.003103  3.947726  -0.004
C  C77  1  0.44721808  0.87698733  0.56067554  1  -0.052157  0.004801  -0.081043  -0.171771  0.003295  3.946694  0.004
C  C78  1  0.52538219  0.38953469  0.89776774  1  -0.047134  0.003532  0.013567  0.106826  0.002387  3.975409  0.002
C  C79  1  0.13592813  0.50820316  0.61044374  1  -0.11168  0.003677  0.014478  0.108295  0.002477  3.975903  0.002
C  C80  1  0.62770290  0.10220493  0.49177393  1  -0.034433  -0.00365  0.014641  0.108649  -0.002401  3.973598  -0.002
C  C81  1  0.47461761  0.61046486  0.10223206  1  -0.047  0.003532  0.013568  0.106823  0.002387  3.975387  0.002
C  C82  1  0.86407132  0.49179762  0.38955553  1  -0.111726  0.003676  0.014439  0.108241  0.002477  3.976071  0.002
C  C83  1  0.37229405  0.89779277  0.50822580  1  -0.034364  -0.00365  0.014686  0.108639  -0.002402  3.973588  -0.002
C  C84  1  0.51130825  0.41741009  0.84113209  1  0.037221  -0.00525  -0.079245  -0.155941  -0.003607  3.919965  -0.004
C  C85  1  0.09389096  0.42368295  0.58252067  1  -0.022805  -0.005215  -0.078329  -0.156576  -0.003459  3.920847  -0.004
C  C86  1  0.67021845  0.15881817  0.57628898  1  0.028806  0.005278  -0.079888  -0.156545  0.003723  3.921346  0.004
C  C87  1  0.48869058  0.58258946  0.15886866  1  0.037506  -0.00525  -0.079287  -0.156029  -0.003607  3.919921  -0.004
C  C88  1  0.90611011  0.57631722  0.41748006  1  -0.022848  -0.005215  -0.078379  -0.156637  -0.003459  3.920915  -0.004
C  C89  1  0.32978104  0.84118076  0.42371104  1  0.028828  0.005278  -0.079941  -0.156585  0.003724  3.921504  0.004
C  C90  1  0.73847032  0.47992846  0.11765583  1  0.488444  0.000121  0.042303  0.097301  6.1e-05  3.985663  0.0
C  C91  1  0.25868971  0.63772151  0.52010713  1  0.473952  -0.000535  0.04035  0.095964  -0.000328  3.98715  0.0
C  C92  1  0.62095934  0.88233875  0.36225613  1  0.415568  0.000499  0.042805  0.098614  0.0003  3.988846  0.0
C  C93  1  0.26153014  0.52007047  0.88234376  1  0.488358  0.000121  0.042298  0.097326  6.1e-05  3.985737  0.0
C  C94  1  0.74130943  0.36227865  0.47989183  1  0.473664  -0.000535  0.040378  0.096006  -0.000328  3.987184  0.0
C  C95  1  0.37903949  0.11766080  0.63774410  1  0.415585  0.000498  0.042825  0.098704  0.0003  3.988813  0.0
C  C96  1  0.62744331  0.43557236  0.04699957  1  -0.02257  0.00055  -0.083775  -0.173298  0.000365  3.941883  0.0
C  C97  1  0.19204390  0.61143439  0.56449246  1  0.023619  0.000612  -0.085688  -0.174568  0.000401  3.943555  0.0
C  C98  1  0.58061181  0.95300419  0.38854806  1  0.036653  -0.000633  -0.085771  -0.176156  -0.000401  3.944437  0.0
C  C99  1  0.37255653  0.56442535  0.95299836  1  -0.022543  0.00055  -0.083784  -0.173297  0.000365  3.941994  0.0
C  C100  1  0.80795555  0.38856639  0.43550681  1  0.023343  0.000612  -0.085632  -0.174446  0.000401  3.943579  0.0
C  C101  1  0.41938864  0.04699475  0.61145205  1  0.036589  -0.000633  -0.085788  -0.176268  -0.000401  3.944313  0.0
C  C102  1  0.63869600  0.43526434  0.97479759  1  -0.026873  -0.000132  0.007561  0.096714  -9.2e-05  3.983091  0.0
C  C103  1  0.20359667  0.53954437  0.56478569  1  -0.003947  -0.000684  0.008657  0.095963  -0.000436  3.983618  -0.001
C  C104  1  0.66402066  0.02518510  0.46045506  1  0.003728  0.000662  0.008839  0.097249  0.000437  3.981869  0.001
C  C105  1  0.36130441  0.56473644  0.02519968  1  -0.026945  -0.000132  0.007535  0.096721  -9.2e-05  3.983028  0.0
C  C106  1  0.79640375  0.46045641  0.43521368  1  -0.003619  -0.000684  0.008636  0.095903  -0.000436  3.983673  -0.001
C  C107  1  0.33597818  0.97481446  0.53954569  1  0.003774  0.000662  0.008806  0.097281  0.000437  3.981817  0.001
C  C108  1  0.76315715  0.47961191  0.97750561  1  -0.016597  0.000563  -0.078825  -0.164358  0.000298  3.90585  0.0
C  C109  1  0.28365369  0.49787973  0.52040464  1  -0.107323  0.000663  -0.077344  -0.160505  0.000522  3.905609  0.0
C  C110  1  0.78574153  0.02245929  0.50211246  1  -0.032791  -0.000728  -0.079247  -0.163477  -0.000552  3.909369  0.0
C  C111  1  0.23684457  0.52038764  0.02249387  1  -0.016476  0.000563  -0.078788  -0.164304  0.000298  3.905733  0.0
C  C112  1  0.71634545  0.50212043  0.47959432  1  -0.107326  0.000663  -0.077385  -0.160567  0.000522  3.90561  0.0
C  C113  1  0.21425762  0.97754088  0.49788808  1  -0.032768  -0.000728  -0.079229  -0.163446  -0.000551  3.90933  0.0
C  C114  1  0.86818089  0.52225861  0.05107184  1  0.445441  0.000271  0.047432  0.103943  0.000212  3.949526  0.0
C  C115  1  0.34605546  0.52880044  0.47776038  1  0.503419  -0.000603  0.047759  0.10504  -0.000431  3.947185  0.0
C  C116  1  0.81722035  0.94889663  0.47118691  1  0.451578  0.000545  0.047273  0.103199  0.00039  3.953868  0.0
C  C117  1  0.13181795  0.47774094  0.94892890  1  0.445633  0.000271  0.047432  0.103891  0.000212  3.949483  0.0
C  C118  1  0.65394496  0.47120034  0.52223899  1  0.503413  -0.000603  0.047746  0.105049  -0.00043  3.947202  0.0
C  C119  1  0.18277941  0.05110476  0.52881528  1  0.451614  0.000546  0.047273  0.103204  0.00039  3.953783  0.0
C  C120  1  0.32935882  0.27371809  0.80140381  1  0.469616  0.001506  0.047356  0.091964  0.000496  3.941466  0.001
C  C121  1  0.05562752  0.52760345  0.72620226  1  0.436094  0.001556  0.046827  0.092229  0.00051  3.941648  0.001
C  C122  1  0.52805825  0.19857049  0.47236192  1  0.491666  -0.001555  0.044134  0.091063  -0.0004  3.938931  -0.001
C  C123  1  0.67064032  0.72628208  0.19859673  1  0.469623  0.001506  0.047371  0.091991  0.000496  3.941454  0.001
C  C124  1  0.94437451  0.47239672  0.27379752  1  0.435878  0.001555  0.0468  0.092175  0.00051  3.941664  0.001
C  C125  1  0.47194221  0.80142845  0.52763715  1  0.491653  -0.001556  0.044142  0.091086  -0.0004  3.939066  -0.001
C  C126  1  0.40885713  0.37145773  0.76671400  1  0.417075  0.000708  0.047838  0.100621  -9.4e-05  3.913204  0.0
C  C127  1  0.03736122  0.39519079  0.62844950  1  0.492486  0.001348  0.05055  0.102665  0.000334  3.91131  0.001
C  C128  1  0.64222715  0.23326071  0.60477826  1  0.384069  -0.000633  0.048069  0.100635  0.000228  3.915127  0.0
C  C129  1  0.59114329  0.62854305  0.23328694  1  0.416827  0.000708  0.047846  0.100656  -9.4e-05  3.913153  0.0
C  C130  1  0.96263792  0.60480938  0.37154999  1  0.492544  0.001348  0.050563  0.102597  0.000334  3.911414  0.001
C  C131  1  0.35777489  0.76673945  0.39522204  1  0.384032  -0.000633  0.04805  0.100585  0.000228  3.915267  0.0
C  C132  1  0.00490472  0.75973493  0.28204749  1  1.490741  0.002877  0.2033  0.583454  0.000125  4.170072  0.005
C  C133  1  0.24541240  0.52238236  0.24030818  1  1.483911  -0.000444  0.201971  0.581248  0.0002  4.171898  0.001
C  C134  1  0.72295760  0.71793697  0.47758416  1  1.480515  0.00041  0.200835  0.580981  -5e-05  4.174008  -0.001
C  C135  1  0.99509570  0.24026585  0.71795292  1  1.490764  0.002877  0.203314  0.583459  0.000125  4.170085  0.005
C  C136  1  0.75458801  0.47761842  0.75969276  1  1.483855  -0.000444  0.20199  0.581308  0.000201  4.171848  0.001
C  C137  1  0.27704251  0.28206320  0.52241594  1  1.480596  0.00041  0.20082  0.580966  -5e-05  4.174036  -0.001
C  C138  1  0.10021369  0.78123171  0.24218192  1  -0.049772  -0.009742  -0.048259  -0.190766  -0.006371  3.981254  -0.008
C  C139  1  0.31910573  0.46095571  0.21880640  1  -0.041658  -0.002858  -0.049185  -0.192091  -0.002572  3.984274  -0.002
C  C140  1  0.85809975  0.75783967  0.53899813  1  -0.016517  0.002656  -0.047212  -0.190842  0.002532  3.982909  0.002
C  C141  1  0.89978418  0.21876784  0.75781716  1  -0.049766  -0.009742  -0.048286  -0.190781  -0.006371  3.981292  -0.008
C  C142  1  0.68089596  0.53904569  0.78119495  1  -0.041576  -0.002858  -0.049265  -0.192202  -0.002571  3.984241  -0.002
C  C143  1  0.14189685  0.24215927  0.46100159  1  -0.016659  0.002656  -0.047248  -0.190852  0.002533  3.983002  0.002
C  C144  1  0.12730176  0.86105817  0.25242146  1  -0.016846  0.000265  -0.102096  -0.145576  -8e-06  4.025636  0.0
C  C145  1  0.26628629  0.39138401  0.13898573  1  0.038634  -0.000832  -0.100365  -0.143217  -0.000587  4.02242  0.0
C  C146  1  0.87487696  0.74761926  0.60859040  1  -0.03032  0.000782  -0.100895  -0.143086  0.000577  4.023868  0.0
C  C147  1  0.87269870  0.13894077  0.74757813  1  -0.016861  0.000265  -0.102052  -0.145529  -8e-06  4.025477  0.0
C  C148  1  0.73371128  0.60861493  0.86101671  1  0.038396  -0.000831  -0.100306  -0.143148  -0.000586  4.022431  0.0
C  C149  1  0.12512376  0.25238214  0.39141032  1  -0.03032  0.000783  -0.100914  -0.143135  0.000578  4.02392  0.0
C  C150  1  0.22192382  0.88801862  0.22164504  1  -0.098699  0.000597  -0.045499  0.067129  0.000458  4.032636  0.0
C  C151  1  0.33395005  0.33364332  0.11203679  1  -0.155955  -0.000757  -0.044548  0.067227  -0.000433  4.03055  0.0
C  C152  1  0.00026633  0.77839945  0.66632683  1  -0.105208  0.000763  -0.044248  0.066883  0.000457  4.0328  0.0
C  C153  1  0.77807694  0.11198093  0.77835539  1  -0.098704  0.000597  -0.045505  0.067144  0.000458  4.03264  0.0
C  C154  1  0.66604844  0.66635746  0.88796396  1  -0.155873  -0.000757  -0.044567  0.067212  -0.000433  4.03062  0.0
C  C155  1  0.99973601  0.22160133  0.33367379  1  -0.105213  0.000763  -0.044251  0.066898  0.000457  4.032786  0.0
C  C156  1  0.29215126  0.83594848  0.17880396  1  -0.095021  -0.000348  -0.097662  -0.116092  -8.9e-05  4.053512  -0.001
C  C157  1  0.45629991  0.34287228  0.16406297  1  -0.032149  0.001308  -0.099752  -0.117462  0.000802  4.055521  0.001
C  C158  1  0.11340690  0.82118456  0.65709374  1  -0.081853  -0.001323  -0.098756  -0.115951  -0.000758  4.055667  -0.001
C  C159  1  0.70784889  0.16404984  0.82119480  1  -0.094787  -0.000349  -0.097715  -0.116191  -9e-05  4.053652  -0.001
C  C160  1  0.54370147  0.65712850  0.83593649  1  -0.032081  0.001308  -0.099754  -0.117487  0.000802  4.055577  0.001
C  C161  1  0.88659352  0.17881622  0.34290615  1  -0.081834  -0.001323  -0.098733  -0.115838  -0.000758  4.055664  -0.001
C  C162  1  0.26555988  0.75722186  0.16746720  1  0.021718  -0.010053  -0.11502  -0.198478  -0.007268  3.95334  -0.009
C  C163  1  0.50853151  0.41027087  0.24280046  1  -0.016203  0.008956  -0.115684  -0.198954  0.006706  3.949678  0.008
C  C164  1  0.09821637  0.83251705  0.58970502  1  0.015406  -0.008947  -0.11243  -0.197061  -0.006512  3.952449  -0.008
C  C165  1  0.73443865  0.24277708  0.83253271  1  0.021775  -0.010053  -0.114989  -0.198406  -0.007268  3.953309  -0.009
C  C166  1  0.49146794  0.58972991  0.75720038  1  -0.01625  0.008958  -0.115659  -0.198904  0.006707  3.949675  0.008
C  C167  1  0.90178120  0.16748189  0.41029427  1  0.015592  -0.008947  -0.112444  -0.197104  -0.006512  3.952472  -0.008
C  C168  1  0.16919332  0.72637361  0.19821959  1  0.67731  -0.001497  0.086543  0.328712  -0.00249  4.107325  0.0
C  C169  1  0.44296532  0.47185371  0.27365280  1  0.679064  0.000186  0.087733  0.330362  0.001809  4.106737  -0.002
C  C170  1  0.97107572  0.80178431  0.52811574  1  0.6303  -0.000269  0.082787  0.32794  -0.001701  4.111554  0.002
C  C171  1  0.83080617  0.27362533  0.80178042  1  0.677305  -0.001498  0.086544  0.328666  -0.002491  4.107391  0.0
C  C172  1  0.55703606  0.52814707  0.72634772  1  0.679301  0.000186  0.087771  0.330425  0.001808  4.106616  -0.002
C  C173  1  0.02892354  0.19821031  0.47188075  1  0.630234  -0.000268  0.082835  0.327921  -0.001702  4.111684  0.002
Br  Br174  1  0.25655603  0.99663191  0.23669075  1  -0.112327  -3.1e-05  -0.008162  -0.108822  -3.2e-05  1.347685  0.0
Br  Br175  1  0.26013011  0.24013985  0.00336321  1  -0.115293  -7.5e-05  -0.008869  -0.108985  -2e-05  1.346769  0.0
Br  Br176  1  0.01970290  0.76326229  0.75982240  1  -0.112494  -0.000135  -0.009021  -0.108954  -0.000126  1.347515  0.0
Br  Br177  1  0.74344504  0.00336826  0.76330998  1  -0.112341  -3.2e-05  -0.008173  -0.108842  -3.2e-05  1.34767  0.0
Br  Br178  1  0.73986999  0.75986031  0.99663690  1  -0.115303  -7.4e-05  -0.008873  -0.108994  -1.9e-05  1.346802  0.0
Br  Br179  1  0.98029751  0.23673850  0.24017801  1  -0.112513  -0.000135  -0.009035  -0.108977  -0.000126  1.347488  0.0
N  N180  1  0.85701983  0.52263703  0.12021007  1  -1.214927  0.002531  -0.327879  -0.261347  0.001392  3.492231  0.001
N  N181  1  0.33450845  0.59757201  0.47740117  1  -1.224215  -0.001547  -0.326414  -0.261608  -0.000715  3.493256  0.0
N  N182  1  0.73690520  0.87976861  0.40242895  1  -1.225215  0.000976  -0.327059  -0.261909  0.000379  3.498027  0.0
N  N183  1  0.14298028  0.47736314  0.87979056  1  -1.214894  0.002531  -0.327845  -0.261299  0.001392  3.492202  0.001
N  N184  1  0.66549069  0.40242816  0.52259779  1  -1.223682  -0.001547  -0.326372  -0.261565  -0.000715  3.493228  0.0
N  N185  1  0.26309714  0.12023217  0.59757218  1  -1.225275  0.000976  -0.327094  -0.261982  0.000379  3.498116  0.0
N  N186  1  0.31989262  0.29996873  0.74637441  1  -1.201955  -0.07085  -0.343202  -0.226677  -0.048059  3.58985  -0.062
N  N187  1  0.01991437  0.44632360  0.69995449  1  -1.196522  -0.069999  -0.345039  -0.228947  -0.047458  3.589932  -0.061
N  N188  1  0.57362549  0.25360708  0.55363283  1  -1.206001  0.070404  -0.341945  -0.22505  0.04918  3.587052  0.061
N  N189  1  0.68010718  0.70003082  0.25362591  1  -1.201978  -0.070849  -0.343191  -0.226656  -0.048059  3.589936  -0.062
N  N190  1  0.98008604  0.55367718  0.30004540  1  -1.196262  -0.069996  -0.345019  -0.228907  -0.047456  3.589956  -0.061
N  N191  1  0.42637400  0.74639185  0.44636666  1  -1.206048  0.070404  -0.341966  -0.225031  0.04918  3.587177  0.061
O  O192  1  0.15253562  0.65104137  0.18442552  1  -1.102902  -0.118237  -0.345494  -0.513561  -0.076429  2.378393  -0.106
O  O193  1  0.50157036  0.53336513  0.34901466  1  -1.118612  0.119584  -0.346731  -0.514657  0.079633  2.377669  0.107
O  O194  1  0.96822683  0.81566846  0.46661687  1  -1.101241  -0.119588  -0.344864  -0.513649  -0.07724  2.377663  -0.107
O  O195  1  0.84746387  0.34895757  0.81557345  1  -1.102842  -0.118235  -0.345497  -0.513559  -0.076427  2.378429  -0.106
O  O196  1  0.49843102  0.46663566  0.65098637  1  -1.118797  0.119585  -0.346751  -0.514711  0.079635  2.37763  0.107
O  O197  1  0.03177297  0.18433110  0.53338240  1  -1.101218  -0.119589  -0.344853  -0.513613  -0.07724  2.377725  -0.107
O  O198  1  0.98115467  0.69157373  0.28244839  1  -1.123793  -0.097746  -0.326526  -0.570697  -0.063342  2.491453  -0.091
O  O199  1  0.29010993  0.59098062  0.30839999  1  -1.131812  0.094713  -0.326911  -0.570983  0.064012  2.493865  0.087
O  O200  1  0.69903754  0.71744973  0.40900157  1  -1.116902  -0.094375  -0.325997  -0.570452  -0.061809  2.493301  -0.086
O  O201  1  0.01884320  0.30842582  0.71755069  1  -1.123806  -0.097741  -0.326528  -0.57068  -0.063338  2.491476  -0.091
O  O202  1  0.70988952  0.40902016  0.69160032  1  -1.131779  0.094717  -0.326931  -0.571025  0.064014  2.493841  0.087
O  O203  1  0.30096257  0.28255043  0.59099801  1  -1.116895  -0.094379  -0.325978  -0.570444  -0.061812  2.49331  -0.086
O  O204  1  0.94599025  0.81236208  0.31871305  1  -1.116089  -0.105766  -0.320169  -0.522714  -0.068678  2.315037  -0.095
O  O205  1  0.13381792  0.50646921  0.18775471  1  -1.120837  -0.073163  -0.318854  -0.520887  -0.047464  2.315964  -0.066
O  O206  1  0.62731156  0.68131808  0.49353327  1  -1.11421  0.073712  -0.318596  -0.521685  0.04949  2.316138  0.067
O  O207  1  0.05400889  0.18763808  0.68128644  1  -1.116072  -0.10576  -0.320149  -0.522716  -0.068674  2.315071  -0.095
O  O208  1  0.86618250  0.49353158  0.81224571  1  -1.120889  -0.073168  -0.318823  -0.520871  -0.047468  2.315921  -0.066
O  O209  1  0.37268855  0.31868209  0.50646684  1  -1.114201  0.073707  -0.318586  -0.521674  0.049487  2.316142  0.067
