# generated using pymatgen
data_Zr3H12C26S5N2O21
_symmetry_space_group_name_H-M   'P 1'
_cell_length_a   16.45027495
_cell_length_b   16.48320336
_cell_length_c   16.52276876
_cell_angle_alpha   62.11263354
_cell_angle_beta   59.98143025
_cell_angle_gamma   60.23565292
_symmetry_Int_Tables_number   1
_chemical_formula_structural   Zr3H12C26S5N2O21
_chemical_formula_sum   'Zr6 H24 C52 S10 N4 O42'
_cell_volume   3220.84621602
_cell_formula_units_Z   2
loop_
 _symmetry_equiv_pos_site_id
 _symmetry_equiv_pos_as_xyz
  1  'x, y, z'
loop_
 _atom_site_type_symbol
 _atom_site_label
 _atom_site_symmetry_multiplicity
 _atom_site_fract_x
 _atom_site_fract_y
 _atom_site_fract_z
 _atom_site_occupancy
 _atom_site_pbe_bader_charge
 _atom_site_pbe_bader_spin_density
 _atom_site_pbe_cm5_charge
 _atom_site_pbe_ddec_charge
 _atom_site_pbe_ddec_spin_density
 _atom_site_pbe_ddec_sum_bond_order
 _atom_site_pbe_magmom
Zr  Zr0  1  0.89015062  0.90113254  0.59992850  1  2.636673  0  1.627977  2.372944  0  2.776242  0
Zr  Zr1  1  0.10882485  0.10544128  0.39570222  1  2.637428  0  1.627587  2.373501  0  2.774937  0
Zr  Zr2  1  0.10414115  0.89796900  0.60353201  1  2.636133  0  1.623608  2.368334  0  2.760163  0
Zr  Zr3  1  0.89446973  0.10886234  0.39251470  1  2.633364  0  1.623487  2.368291  0  2.759368  0
Zr  Zr4  1  0.10889882  0.89391572  0.38850508  1  2.640197  0  1.617938  2.3769  0  2.721685  0
Zr  Zr5  1  0.88999407  0.11275610  0.60732697  1  2.634408  0  1.617554  2.375772  0  2.723773  0
H  H6  1  0.08088602  0.75441780  0.57684472  1  0.611178  0  0.33161  0.424162  0  0.85723  0
H  H7  1  0.08805452  0.08216709  0.24893121  1  0.602438  0  0.331564  0.424367  0  0.855472  0
H  H8  1  0.08318044  0.08607410  0.58631562  1  0.603475  0  0.330377  0.423649  0  0.855775  0
H  H9  1  0.74451795  0.09167301  0.58060817  1  0.592714  0  0.330558  0.423879  0  0.855735  0
H  H10  1  0.86677096  0.64893636  0.82947509  1  0.071704  0  0.101549  0.115994  0  1.020482  0
H  H11  1  0.15443753  0.33552540  0.14356595  1  0.100373  0  0.101557  0.116179  0  1.022724  0
H  H12  1  0.80827265  0.45688798  0.67324325  1  0.591087  0  0.335589  0.358035  0  0.881202  0
H  H13  1  0.17758081  0.56218586  0.30957673  1  0.610784  0  0.33829  0.361693  0  0.875894  0
H  H14  1  0.45208042  0.81387304  0.05774273  1  0.616041  0  0.3379  0.361287  0  0.875814  0
H  H15  1  0.56228476  0.17817869  0.95164872  1  0.63153  0  0.335821  0.357764  0  0.881598  0
H  H16  1  0.17014365  0.81372200  0.93785336  1  0.614244  0  0.338268  0.36235  0  0.872241  0
H  H17  1  0.81191501  0.17659882  0.07446567  1  0.595139  0  0.33522  0.358348  0  0.87907  0
H  H18  1  0.43633029  0.57881400  0.67242063  1  0.58752  0  0.335011  0.358305  0  0.878476  0
H  H19  1  0.57752521  0.44291976  0.30910545  1  0.598255  0  0.338047  0.361501  0  0.873687  0
H  H20  1  0.44179769  0.17130650  0.31671860  1  0.599141  0  0.335438  0.358031  0  0.878531  0
H  H21  1  0.57025826  0.82189708  0.66586816  1  0.61607  0  0.335695  0.358335  0  0.880164  0
H  H22  1  0.23350320  0.49690032  0.92231692  1  0.406936  0  0.294007  0.280177  0  0.963527  0
H  H23  1  0.24742394  0.42688768  0.02957018  1  0.405059  0  0.291209  0.279032  0  0.961992  0
H  H24  1  0.10284934  0.72031269  0.83764677  1  0.50391  0  0.303251  0.317523  0  0.981865  0
H  H25  1  0.13621893  0.63093791  0.94009944  1  0.477302  0  0.296647  0.290703  0  1.001241  0
H  H26  1  0.84702768  0.42778131  0.99061660  1  0.407643  0  0.293634  0.280014  0  0.963219  0
H  H27  1  0.79645591  0.53514726  0.92018792  1  0.390082  0  0.291244  0.27942  0  0.961102  0
H  H28  1  0.84070634  0.34092757  0.21319677  1  0.500865  0  0.302927  0.316858  0  0.982772  0
H  H29  1  0.79350797  0.44374662  0.12480470  1  0.467651  0  0.297  0.290622  0  1.000173  0
C  C30  1  0.99796827  0.73804370  0.48435488  1  1.603189  0  0.220729  0.654595  0  4.160288  0
C  C31  1  0.27998169  0.98965293  0.23273243  1  1.569287  0  0.220688  0.654342  0  4.159605  0
C  C32  1  0.99362246  0.27577714  0.50394921  1  1.608836  0  0.222434  0.656818  0  4.156264  0
C  C33  1  0.72702795  0.00909197  0.77042461  1  1.572706  0  0.222413  0.657445  0  4.157151  0
C  C34  1  0.98535834  0.74315438  0.76616385  1  1.480829  0  0.22423  0.640232  0  4.088325  0
C  C35  1  0.73190309  0.99979196  0.49226073  1  1.580345  0  0.219976  0.652558  0  4.166484  0
C  C36  1  0.00540629  0.27142630  0.23751337  1  1.467938  0  0.224499  0.641479  0  4.088714  0
C  C37  1  0.27607700  0.99761919  0.49449086  1  1.590878  0  0.221062  0.654618  0  4.166282  0
C  C38  1  0.27522011  0.73441470  0.49451971  1  1.591318  0  0.221436  0.656404  0  4.156794  0
C  C39  1  0.99465806  0.99923262  0.77492073  1  1.604586  0  0.221542  0.65751  0  4.159242  0
C  C40  1  0.73105083  0.28010934  0.49408249  1  1.578192  0  0.222022  0.656847  0  4.157982  0
C  C41  1  0.99595031  0.99941091  0.22924566  1  1.608897  0  0.222009  0.656777  0  4.157633  0
C  C42  1  0.92377339  0.42590674  0.56295827  1  0.590665  0  0.08284  0.275315  0  4.090474  0
C  C43  1  0.06304607  0.59216118  0.42094110  1  0.577835  0  0.084141  0.276357  0  4.090227  0
C  C44  1  0.99085622  0.36718265  0.50085284  1  -0.132741  0  -0.035919  -0.227933  0  3.90024  0
C  C45  1  0.99687604  0.65014327  0.48383839  1  -0.141844  0  -0.036433  -0.227116  0  3.899285  0
C  C46  1  0.03597392  0.51052406  0.44980558  1  -0.137483  0  -0.041025  -0.139827  0  4.153879  0
C  C47  1  0.95003390  0.50821753  0.53342935  1  -0.154927  0  -0.0426  -0.143047  0  4.159549  0
C  C48  1  0.42475810  0.92564602  0.08734926  1  0.563416  0  0.084138  0.276771  0  4.089673  0
C  C49  1  0.58802804  0.06787093  0.92071657  1  0.558693  0  0.083059  0.275698  0  4.090671  0
C  C50  1  0.36974754  0.98886409  0.14504088  1  -0.069337  0  -0.035804  -0.227314  0  3.899962  0
C  C51  1  0.64178035  0.00569618  0.86205898  1  -0.110638  0  -0.035522  -0.227674  0  3.901309  0
C  C52  1  0.50914775  0.03822771  0.00318748  1  -0.152954  0  -0.042332  -0.142325  0  4.158112  0
C  C53  1  0.50471709  0.95438561  0.00576976  1  -0.130837  0  -0.041381  -0.140256  0  4.153946  0
C  C54  1  0.05805540  0.92778851  0.91777605  1  0.548206  0  0.083462  0.27586  0  4.084007  0
C  C55  1  0.92532868  0.06387768  0.09325014  1  0.567341  0  0.083115  0.276267  0  4.085574  0
C  C56  1  0.99312697  0.99506179  0.86615342  1  -0.101202  0  -0.03667  -0.230842  0  3.898593  0
C  C57  1  0.99183931  0.99807530  0.14338701  1  -0.087332  0  -0.035605  -0.227138  0  3.895225  0
C  C58  1  0.94933682  0.03765222  0.01133158  1  -0.161503  0  -0.041917  -0.142695  0  4.157981  0
C  C59  1  0.03286709  0.95268977  0.00095463  1  -0.151726  0  -0.041995  -0.143152  0  4.159604  0
C  C60  1  0.41682219  0.59778708  0.55963201  1  0.571677  0  0.082936  0.275848  0  4.086923  0
C  C61  1  0.59572315  0.42264345  0.42319762  1  0.553291  0  0.083615  0.27537  0  4.083533  0
C  C62  1  0.36612396  0.64814578  0.49366263  1  -0.093342  0  -0.035514  -0.227263  0  3.894959  0
C  C63  1  0.64514994  0.37102809  0.49034035  1  -0.088232  0  -0.036214  -0.229065  0  3.89642  0
C  C64  1  0.51273612  0.50563455  0.44833139  1  -0.164169  0  -0.041758  -0.142188  0  4.158501  0
C  C65  1  0.50090785  0.51585136  0.53339938  1  -0.166139  0  -0.042518  -0.143494  0  4.159032  0
C  C66  1  0.04170251  0.61313217  0.90785766  1  0.482797  0  0.113757  0.271572  0  4.020228  0
C  C67  1  0.90998059  0.61538192  0.87695692  1  0.009491  0  -0.116873  -0.224818  0  4.057927  0
C  C68  1  0.89531111  0.53633002  0.95713101  1  0.259671  0  0.061948  0.212292  0  4.087182  0
C  C69  1  0.95535083  0.49053251  0.01713212  1  0.035305  0  -0.013784  -0.092152  0  3.911303  0
C  C70  1  0.93785159  0.41226483  0.10675279  1  0.486074  0  0.112654  0.268858  0  4.023328  0
C  C71  1  0.09734577  0.38268702  0.10994456  1  -0.030399  0  -0.116253  -0.224166  0  4.060913  0
C  C72  1  0.11048184  0.46309688  0.03109600  1  0.359119  0  0.061671  0.211245  0  4.091129  0
C  C73  1  0.03616960  0.52295120  0.98542026  1  -0.028535  0  -0.014504  -0.094192  0  3.913426  0
C  C74  1  0.97952257  0.65698438  0.85212616  1  0.038788  0  -0.045409  -0.170996  0  4.010109  0
C  C75  1  0.01146219  0.35723987  0.15114551  1  -0.029663  0  -0.045708  -0.171127  0  4.01223  0
C  C76  1  0.42104013  0.05981465  0.42482994  1  0.577258  0  0.08351  0.276593  0  4.083523  0
C  C77  1  0.59436949  0.93013133  0.55453151  1  0.586192  0  0.083599  0.275656  0  4.086473  0
C  C78  1  0.36788510  0.99583559  0.48992050  1  -0.079836  0  -0.035948  -0.227538  0  3.904169  0
C  C79  1  0.64643069  0.99520871  0.49054374  1  -0.108044  0  -0.036207  -0.227095  0  3.906645  0
C  C80  1  0.51264713  0.95334819  0.52977968  1  -0.160764  0  -0.041552  -0.140931  0  4.158974  0
C  C81  1  0.50433408  0.03506780  0.44799086  1  -0.169515  0  -0.041713  -0.142169  0  4.159852  0
S  S82  1  0.08538753  0.41276817  0.40632153  1  0.244152  0  0.058975  0.112201  0  2.802543  0
S  S83  1  0.90132065  0.60544736  0.57753640  1  0.231183  0  0.053011  0.102806  0  2.810958  0
S  S84  1  0.41627033  0.08264281  0.10015909  1  0.217693  0  0.052583  0.10241  0  2.809971  0
S  S85  1  0.59645104  0.91092261  0.90796533  1  0.234003  0  0.05911  0.112116  0  2.803271  0
S  S86  1  0.90073304  0.08784205  0.92011720  1  0.23757  0  0.055641  0.108237  0  2.796456  0
S  S87  1  0.08274106  0.90381218  0.09098157  1  0.232374  0  0.05873  0.111046  0  2.792866  0
S  S88  1  0.42183462  0.59580112  0.39936623  1  0.239517  0  0.058677  0.110841  0  2.794218  0
S  S89  1  0.59073909  0.42470676  0.58337196  1  0.237405  0  0.055437  0.107602  0  2.796265  0
S  S90  1  0.41994474  0.90533223  0.57863431  1  0.216423  0  0.056369  0.108387  0  2.800224  0
S  S91  1  0.59618537  0.08393318  0.40001740  1  0.244134  0  0.056315  0.10824  0  2.801236  0
N  N92  1  0.19885860  0.48397086  0.99619057  1  -1.176458  0  -0.613869  -0.634782  0  3.297861  0
N  N93  1  0.10490319  0.65486011  0.89001294  1  -1.296551  0  -0.59409  -0.605768  0  3.382503  0
N  N94  1  0.82101761  0.50164787  0.97749653  1  -1.151054  0  -0.615025  -0.636724  0  3.294672  0
N  N95  1  0.85165399  0.39294801  0.14743486  1  -1.277615  0  -0.594545  -0.605224  0  3.380276  0
O  O96  1  0.92718416  0.77441527  0.55366396  1  -1.179789  0  -0.356734  -0.616946  0  2.282649  0
O  O97  1  0.24487943  0.05916479  0.26891116  1  -1.17698  0  -0.356885  -0.617279  0  2.281202  0
O  O98  1  0.06612783  0.23776514  0.43636927  1  -1.181834  0  -0.357746  -0.618431  0  2.279658  0
O  O99  1  0.76005602  0.94159831  0.73233876  1  -1.176039  0  -0.357605  -0.618204  0  2.280555  0
O  O100  1  0.05450954  0.77803385  0.73382847  1  -1.185173  0  -0.354757  -0.624203  0  2.303997  0
O  O101  1  0.76517899  0.06861077  0.42602811  1  -1.17704  0  -0.354718  -0.615646  0  2.260092  0
O  O102  1  0.93381677  0.23892573  0.27241709  1  -1.186674  0  -0.354908  -0.624273  0  2.30582  0
O  O103  1  0.24020670  0.93138279  0.56327380  1  -1.184094  0  -0.355111  -0.61657  0  2.261401  0
O  O104  1  0.24295651  0.76596418  0.42519256  1  -1.182371  0  -0.352758  -0.616955  0  2.249506  0
O  O105  1  0.92634322  0.06998584  0.74175674  1  -1.183109  0  -0.352062  -0.61693  0  2.24643  0
O  O106  1  0.76193805  0.24702431  0.56472650  1  -1.175325  0  -0.352612  -0.616886  0  2.244836  0
O  O107  1  0.06625410  0.93038868  0.26058208  1  -1.180437  0  -0.353512  -0.617657  0  2.248902  0
O  O108  1  0.06555137  0.93241109  0.73526977  1  -1.18097  0  -0.361964  -0.607524  0  2.279499  0
O  O109  1  0.76680262  0.24064872  0.42706719  1  -1.164955  0  -0.361925  -0.607681  0  2.278512  0
O  O110  1  0.92959599  0.07033621  0.26475293  1  -1.176376  0  -0.361011  -0.603303  0  2.276783  0
O  O111  1  0.23516034  0.77006880  0.56535697  1  -1.168508  0  -0.361067  -0.603464  0  2.275048  0
O  O112  1  0.92097879  0.77866299  0.72515995  1  -1.185913  0  -0.375845  -0.630755  0  2.314711  0
O  O113  1  0.23870729  0.06654512  0.42998145  1  -1.17423  0  -0.362776  -0.601965  0  2.292482  0
O  O114  1  0.07506325  0.23076584  0.27324325  1  -1.181794  0  -0.375289  -0.631087  0  2.314905  0
O  O115  1  0.76489516  0.93526313  0.56114886  1  -1.166127  0  -0.362088  -0.600473  0  2.292243  0
O  O116  1  0.76059952  0.07844985  0.73561006  1  -1.166668  0  -0.358955  -0.60339  0  2.260703  0
O  O117  1  0.06907535  0.77004239  0.41812473  1  -1.168891  0  -0.35798  -0.601674  0  2.260405  0
O  O118  1  0.24308270  0.92343497  0.26474171  1  -1.167195  0  -0.357724  -0.601448  0  2.259555  0
O  O119  1  0.92538575  0.24104747  0.57314117  1  -1.179312  0  -0.358721  -0.602995  0  2.259378  0
O  O120  1  0.81694336  0.06713717  0.55718315  1  -1.220168  0  -0.693301  -1.072102  0  2.356983  0
O  O121  1  0.05874678  0.06264794  0.56174770  1  -1.229829  0  -0.693142  -1.071416  0  2.356945  0
O  O122  1  0.06337328  0.05845823  0.31967667  1  -1.229449  0  -0.694557  -1.070934  0  2.363317  0
O  O123  1  0.05859823  0.82514325  0.55305811  1  -1.236944  0  -0.694548  -1.070872  0  2.365676  0
O  O124  1  0.13366747  0.95633591  0.45409356  1  -1.200978  0  -0.788952  -1.149942  0  2.123385  0
O  O125  1  0.95604478  0.95947730  0.45077946  1  -1.200456  0  -0.789105  -1.15003  0  2.122562  0
O  O126  1  0.95569800  0.13446749  0.45786876  1  -1.200677  0  -0.790429  -1.147647  0  2.130402  0
O  O127  1  0.95200458  0.96333683  0.62901456  1  -1.200682  0  -0.790683  -1.148054  0  2.131811  0
O  O128  1  0.84413020  0.40542174  0.64169125  1  -1.094623  0  -0.332309  -0.399267  0  2.281722  0
O  O129  1  0.14312998  0.61216557  0.34278109  1  -1.10991  0  -0.331228  -0.398746  0  2.279297  0
O  O130  1  0.40307295  0.84727750  0.10752457  1  -1.107945  0  -0.330886  -0.398265  0  2.277382  0
O  O131  1  0.60925050  0.14677310  0.90004590  1  -1.129951  0  -0.333188  -0.399753  0  2.282636  0
O  O132  1  0.13590067  0.84879452  0.89082317  1  -1.11987  0  -0.330167  -0.39667  0  2.281577  0
O  O133  1  0.84811540  0.14333314  0.11961564  1  -1.096463  0  -0.332145  -0.399395  0  2.28485  0
O  O134  1  0.38820982  0.62398089  0.63920684  1  -1.0875  0  -0.331844  -0.398908  0  2.283879  0
O  O135  1  0.62387958  0.39594725  0.34401580  1  -1.09835  0  -0.330544  -0.39641  0  2.28168  0
O  O136  1  0.39494634  0.13635324  0.34977556  1  -1.096752  0  -0.331134  -0.399024  0  2.285039  0
O  O137  1  0.61901012  0.85493545  0.63099711  1  -1.113432  0  -0.331291  -0.399002  0  2.286562  0
