# generated using pymatgen
data_Zr3H12C26S5(NO8)2
_symmetry_space_group_name_H-M   'P 1'
_cell_length_a   16.43342865
_cell_length_b   16.46247352
_cell_length_c   16.51102128
_cell_angle_alpha   62.15487616
_cell_angle_beta   59.96041452
_cell_angle_gamma   60.24345219
_symmetry_Int_Tables_number   1
_chemical_formula_structural   Zr3H12C26S5(NO8)2
_chemical_formula_sum   'Zr6 H24 C52 S10 N4 O32'
_cell_volume   3211.76650130
_cell_formula_units_Z   2
loop_
 _symmetry_equiv_pos_site_id
 _symmetry_equiv_pos_as_xyz
  1  'x, y, z'
loop_
 _atom_site_type_symbol
 _atom_site_label
 _atom_site_symmetry_multiplicity
 _atom_site_fract_x
 _atom_site_fract_y
 _atom_site_fract_z
 _atom_site_occupancy
 _atom_site_pbe_bader_charge
 _atom_site_pbe_bader_spin_density
 _atom_site_pbe_cm5_charge
 _atom_site_pbe_ddec_charge
 _atom_site_pbe_ddec_spin_density
 _atom_site_pbe_ddec_sum_bond_order
 _atom_site_pbe_magmom
Zr  Zr0  1  0.88829428  0.90272566  0.59980169  1  2.637902  0  1.629347  2.373394  0  2.77775  0
Zr  Zr1  1  0.10923011  0.10532703  0.39736330  1  2.639148  0  1.629412  2.374794  0  2.775994  0
Zr  Zr2  1  0.10222443  0.89793081  0.60527175  1  2.630644  0  1.620451  2.370349  0  2.757266  0
Zr  Zr3  1  0.89458349  0.11071506  0.39255222  1  2.632596  0  1.620583  2.369283  0  2.757918  0
Zr  Zr4  1  0.10810426  0.89476042  0.38915935  1  2.639365  0  1.617096  2.377165  0  2.726285  0
Zr  Zr5  1  0.88907679  0.11368025  0.60821445  1  2.634094  0  1.616699  2.377939  0  2.724215  0
H  H6  1  0.07888712  0.75485563  0.57742629  1  0.616553  0  0.332158  0.425886  0  0.853991  0
H  H7  1  0.08883554  0.08306238  0.24946907  1  0.601208  0  0.331984  0.425233  0  0.852652  0
H  H8  1  0.08266169  0.08568117  0.58845906  1  0.609871  0  0.331316  0.425573  0  0.854927  0
H  H9  1  0.74332133  0.09395141  0.58015348  1  0.622766  0  0.331401  0.425506  0  0.854844  0
H  H10  1  0.85992625  0.40756488  0.62125169  1  0.120974  0  0.118833  0.14404  0  0.97552  0
H  H11  1  0.12500362  0.61337188  0.36146003  1  0.11378  0  0.120782  0.146316  0  0.972007  0
H  H12  1  0.39977480  0.86753028  0.10766979  1  0.119626  0  0.120657  0.146355  0  0.972455  0
H  H13  1  0.61117401  0.12704319  0.90156511  1  0.105568  0  0.11887  0.14373  0  0.974993  0
H  H14  1  0.11832545  0.87202844  0.88891715  1  0.111069  0  0.117626  0.143422  0  0.975898  0
H  H15  1  0.86421462  0.12402807  0.12268427  1  0.101859  0  0.117511  0.142408  0  0.978576  0
H  H16  1  0.38954115  0.62863236  0.61782666  1  0.11928  0  0.117532  0.142888  0  0.978574  0
H  H17  1  0.62102221  0.39431372  0.36634468  1  0.125653  0  0.117627  0.14299  0  0.977417  0
H  H18  1  0.86689425  0.64768171  0.82858659  1  0.075857  0  0.102756  0.116506  0  1.019632  0
H  H19  1  0.15624283  0.33467348  0.14266518  1  0.089003  0  0.103097  0.116739  0  1.020847  0
H  H20  1  0.39377496  0.11530388  0.36892326  1  0.114544  0  0.119962  0.145537  0  0.975464  0
H  H21  1  0.62226021  0.87370450  0.61025050  1  0.124317  0  0.120046  0.145573  0  0.975738  0
H  H22  1  0.24092786  0.48621758  0.91948548  1  0.404392  0  0.298621  0.283001  0  0.951156  0
H  H23  1  0.24839991  0.42803100  0.03019744  1  0.394277  0  0.297487  0.285851  0  0.950555  0
H  H24  1  0.10621263  0.71692789  0.83346861  1  0.494606  0  0.301874  0.312992  0  0.991072  0
H  H25  1  0.14532940  0.62329143  0.93295014  1  0.477377  0  0.298317  0.296264  0  1.003934  0
H  H26  1  0.85356928  0.42453378  0.98041799  1  0.415019  0  0.298544  0.2836  0  0.95028  0
H  H27  1  0.79404043  0.53515748  0.92163755  1  0.414928  0  0.297994  0.287213  0  0.950232  0
H  H28  1  0.84376789  0.33821326  0.21084818  1  0.517764  0  0.301803  0.313293  0  0.989729  0
H  H29  1  0.79865258  0.43774523  0.11740419  1  0.490144  0  0.298062  0.295912  0  1.004717  0
C  C30  1  0.99444141  0.73989983  0.48503859  1  1.580921  0  0.224986  0.642005  0  4.157164  0
C  C31  1  0.28054224  0.99096637  0.23430512  1  1.562367  0  0.225121  0.643676  0  4.155823  0
C  C32  1  0.99569651  0.27618974  0.50314558  1  1.564698  0  0.226032  0.645428  0  4.150101  0
C  C33  1  0.72497230  0.00865636  0.77059204  1  1.586006  0  0.226367  0.645266  0  4.151987  0
C  C34  1  0.98450171  0.74305473  0.76612582  1  1.465423  0  0.224731  0.643438  0  4.080365  0
C  C35  1  0.73107042  0.00431280  0.48855486  1  1.574331  0  0.224793  0.643001  0  4.159599  0
C  C36  1  0.00610067  0.27170282  0.23770714  1  1.45962  0  0.224243  0.642882  0  4.078506  0
C  C37  1  0.27618485  0.99357587  0.49919077  1  1.580153  0  0.224883  0.644597  0  4.157589  0
C  C38  1  0.27436165  0.73463208  0.49308253  1  1.579554  0  0.225021  0.645124  0  4.149767  0
C  C39  1  0.99036461  0.00191473  0.77693115  1  1.580383  0  0.225076  0.645275  0  4.150361  0
C  C40  1  0.73087504  0.28235543  0.49638064  1  1.572142  0  0.225244  0.645104  0  4.152693  0
C  C41  1  0.99792767  0.99902947  0.22897253  1  1.601817  0  0.225315  0.644969  0  4.151523  0
C  C42  1  0.92341762  0.42658715  0.55994671  1  -0.010142  0  -0.090834  -0.140305  0  3.980183  0
C  C43  1  0.06084436  0.59501408  0.42207419  1  0.046974  0  -0.088879  -0.137846  0  3.974353  0
C  C44  1  0.99302142  0.36892118  0.49799421  1  -0.117584  0  -0.022576  -0.11527  0  3.973493  0
C  C45  1  0.99243931  0.65168031  0.48514393  1  -0.185776  0  -0.023569  -0.114928  0  3.976914  0
C  C46  1  0.03554245  0.51335494  0.44880219  1  -0.136459  0  -0.022503  -0.008647  0  4.068276  0
C  C47  1  0.94760802  0.50923890  0.53210656  1  -0.174876  0  -0.023738  -0.010594  0  4.073796  0
C  C48  1  0.42170534  0.92815104  0.08923638  1  0.049929  0  -0.089403  -0.138057  0  3.975909  0
C  C49  1  0.58982728  0.06582039  0.92064794  1  0.023189  0  -0.090762  -0.139088  0  3.978823  0
C  C50  1  0.37050810  0.99120319  0.14590259  1  -0.140652  0  -0.023132  -0.115008  0  3.975324  0
C  C51  1  0.63983443  0.00375325  0.86311105  1  -0.138684  0  -0.02282  -0.116224  0  3.975538  0
C  C52  1  0.51074832  0.03811110  0.00326247  1  -0.22315  0  -0.023731  -0.010059  0  4.073579  0
C  C53  1  0.50190781  0.95481524  0.00747765  1  -0.177814  0  -0.022426  -0.010124  0  4.070462  0
C  C54  1  0.05595606  0.93251466  0.91562280  1  0.012825  0  -0.091227  -0.138587  0  3.979375  0
C  C55  1  0.92561379  0.06282223  0.09648572  1  0.008588  0  -0.09153  -0.139324  0  3.977707  0
C  C56  1  0.98835380  0.99971729  0.86804885  1  -0.154207  0  -0.023567  -0.116497  0  3.96958  0
C  C57  1  0.99455087  0.99663472  0.14275079  1  -0.14962  0  -0.023803  -0.117284  0  3.969336  0
C  C58  1  0.94742396  0.03934685  0.01415978  1  -0.18437  0  -0.023439  -0.00963  0  4.070653  0
C  C59  1  0.03295936  0.95495048  0.99900782  1  -0.159076  0  -0.022995  -0.009276  0  4.070481  0
C  C60  1  0.41557147  0.60236593  0.55666751  1  0.03826  0  -0.091838  -0.140558  0  3.978612  0
C  C61  1  0.59622233  0.42113431  0.42672891  1  0.06737  0  -0.090823  -0.137209  0  3.98126  0
C  C62  1  0.36656776  0.64858474  0.49048869  1  -0.150944  0  -0.023437  -0.116502  0  3.968729  0
C  C63  1  0.64415464  0.37361669  0.49396147  1  -0.192314  0  -0.023959  -0.117771  0  3.971783  0
C  C64  1  0.51352647  0.50468359  0.44897768  1  -0.189705  0  -0.023288  -0.0096  0  4.07168  0
C  C65  1  0.49955685  0.51998238  0.53326365  1  -0.21092  0  -0.023299  -0.009362  0  4.070901  0
C  C66  1  0.04443145  0.61040217  0.90483878  1  0.454044  0  0.116355  0.275755  0  4.023169  0
C  C67  1  0.91101885  0.61359684  0.87534187  1  0.002117  0  -0.114147  -0.222145  0  4.055787  0
C  C68  1  0.89805347  0.53319584  0.95438423  1  0.289594  0  0.064341  0.211506  0  4.085941  0
C  C69  1  0.95870315  0.48726173  0.01395881  1  0.002429  0  -0.01271  -0.092345  0  3.90554  0
C  C70  1  0.94038465  0.40999806  0.10462525  1  0.478534  0  0.11613  0.275371  0  4.018498  0
C  C71  1  0.09954333  0.38122463  0.10844237  1  0.016677  0  -0.11417  -0.221323  0  4.058715  0
C  C72  1  0.11379838  0.46027300  0.02806764  1  0.299687  0  0.06404  0.211232  0  4.085679  0
C  C73  1  0.03967247  0.51961795  0.98193677  1  0.002326  0  -0.012624  -0.09195  0  3.907631  0
C  C74  1  0.98031913  0.65563085  0.85061807  1  0.049325  0  -0.04562  -0.175523  0  4.011969  0
C  C75  1  0.01320602  0.35614237  0.15018852  1  0.003058  0  -0.045822  -0.176327  0  4.012665  0
C  C76  1  0.41934571  0.05565406  0.42724562  1  0.101181  0  -0.090046  -0.137729  0  3.977883  0
C  C77  1  0.59791045  0.93211397  0.55068457  1  -0.031633  0  -0.089714  -0.13714  0  3.977948  0
C  C78  1  0.36926279  0.99033960  0.49446109  1  -0.22528  0  -0.023447  -0.117008  0  3.981  0
C  C79  1  0.64595831  0.99945763  0.48544404  1  -0.109713  0  -0.023751  -0.116972  0  3.981417  0
C  C80  1  0.51599678  0.95180985  0.52907589  1  -0.174704  0  -0.022425  -0.008542  0  4.071954  0
C  C81  1  0.50314899  0.03404365  0.44696904  1  -0.160548  0  -0.022425  -0.007701  0  4.072155  0
S  S82  1  0.08744250  0.41491575  0.40536239  1  0.244123  0  0.082243  0.120989  0  2.737763  0
S  S83  1  0.89676111  0.60680330  0.57656447  1  0.243222  0  0.074772  0.108797  0  2.746767  0
S  S84  1  0.41969916  0.08263718  0.10082054  1  0.252204  0  0.075171  0.109328  0  2.744997  0
S  S85  1  0.59188700  0.91123245  0.90912873  1  0.269247  0  0.082023  0.121385  0  2.738488  0
S  S86  1  0.89612402  0.09006909  0.92482725  1  0.260815  0  0.075913  0.111338  0  2.729223  0
S  S87  1  0.08543709  0.90512431  0.08719133  1  0.259762  0  0.080618  0.118  0  2.728194  0
S  S88  1  0.42273771  0.59290063  0.39908336  1  0.255712  0  0.08056  0.118  0  2.7287  0
S  S89  1  0.58938302  0.43061473  0.58409386  1  0.258189  0  0.075966  0.111542  0  2.730026  0
S  S90  1  0.42411283  0.90176295  0.58105586  1  0.256014  0  0.077452  0.113055  0  2.732459  0
S  S91  1  0.59295470  0.08615301  0.39701212  1  0.249788  0  0.077746  0.113133  0  2.733148  0
N  N92  1  0.20252429  0.48115217  0.99202086  1  -1.13195  0  -0.606034  -0.624802  0  3.29064  0
N  N93  1  0.10761598  0.65212483  0.88686645  1  -1.291688  0  -0.593018  -0.60544  0  3.3759  0
N  N94  1  0.82460868  0.49714794  0.97502142  1  -1.169909  0  -0.606905  -0.627149  0  3.291975  0
N  N95  1  0.85388349  0.39133673  0.14582593  1  -1.318929  0  -0.592777  -0.605512  0  3.373735  0
O  O96  1  0.92373694  0.77759982  0.55354873  1  -1.182974  0  -0.359147  -0.619368  0  2.296256  0
O  O97  1  0.24507492  0.05939207  0.27211178  1  -1.179232  0  -0.359095  -0.619852  0  2.296406  0
O  O98  1  0.06890732  0.23600121  0.43729454  1  -1.170024  0  -0.359414  -0.619966  0  2.294894  0
O  O99  1  0.75799518  0.94260722  0.73059467  1  -1.177474  0  -0.35908  -0.618687  0  2.294437  0
O  O100  1  0.05371132  0.77842083  0.73381724  1  -1.187827  0  -0.363374  -0.63596  0  2.313694  0
O  O101  1  0.76500822  0.07312055  0.42356523  1  -1.178581  0  -0.35762  -0.620802  0  2.26724  0
O  O102  1  0.93388552  0.23934501  0.27304220  1  -1.187724  0  -0.363  -0.634726  0  2.312178  0
O  O103  1  0.23832757  0.92866355  0.56800390  1  -1.185066  0  -0.357786  -0.621553  0  2.268134  0
O  O104  1  0.24065729  0.76669764  0.42468913  1  -1.178136  0  -0.355858  -0.619585  0  2.264566  0
O  O105  1  0.92275414  0.07225246  0.74245796  1  -1.177516  0  -0.355874  -0.62123  0  2.260557  0
O  O106  1  0.76261540  0.24795047  0.56669895  1  -1.172086  0  -0.355513  -0.620648  0  2.26246  0
O  O107  1  0.06793558  0.93056474  0.26105166  1  -1.183353  0  -0.355846  -0.619452  0  2.264782  0
O  O108  1  0.06111839  0.93373585  0.73882611  1  -1.18506  0  -0.360187  -0.618188  0  2.264469  0
O  O109  1  0.76627670  0.24410552  0.42835698  1  -1.181204  0  -0.360585  -0.618023  0  2.266089  0
O  O110  1  0.93111568  0.07052400  0.26375015  1  -1.181618  0  -0.360165  -0.616014  0  2.267753  0
O  O111  1  0.23483136  0.76923260  0.56470151  1  -1.179363  0  -0.360051  -0.616422  0  2.267005  0
O  O112  1  0.91941274  0.77994163  0.72557885  1  -1.183034  0  -0.373529  -0.629749  0  2.30999  0
O  O113  1  0.23983834  0.06313634  0.43415523  1  -1.180925  0  -0.361502  -0.61339  0  2.282303  0
O  O114  1  0.07478199  0.23130927  0.27465079  1  -1.182737  0  -0.372909  -0.629372  0  2.308297  0
O  O115  1  0.76290851  0.93938081  0.55813093  1  -1.178138  0  -0.361698  -0.612706  0  2.284677  0
O  O116  1  0.75817069  0.07811683  0.73715944  1  -1.177868  0  -0.358491  -0.615016  0  2.248042  0
O  O117  1  0.06660265  0.77055925  0.41883018  1  -1.17909  0  -0.357419  -0.611724  0  2.247955  0
O  O118  1  0.24402823  0.92467506  0.26502093  1  -1.17822  0  -0.357796  -0.612974  0  2.249657  0
O  O119  1  0.92647776  0.24276338  0.57259368  1  -1.180808  0  -0.358351  -0.614705  0  2.24679  0
O  O120  1  0.81584778  0.06923237  0.55699980  1  -1.250416  0  -0.693559  -1.068801  0  2.352345  0
O  O121  1  0.05799910  0.06247477  0.56380706  1  -1.240797  0  -0.69327  -1.069409  0  2.352349  0
O  O122  1  0.06377887  0.05926004  0.32027062  1  -1.22938  0  -0.694285  -1.068478  0  2.357299  0
O  O123  1  0.05695306  0.82566915  0.55364079  1  -1.244698  0  -0.694335  -1.068843  0  2.358733  0
O  O124  1  0.13316600  0.95617914  0.45561854  1  -1.197504  0  -0.789086  -1.148123  0  2.119248  0
O  O125  1  0.95516704  0.96104026  0.45065315  1  -1.203287  0  -0.789063  -1.147267  0  2.117671  0
O  O126  1  0.95567768  0.13536324  0.45876439  1  -1.198033  0  -0.791103  -1.146597  0  2.128682  0
O  O127  1  0.95030859  0.96420404  0.62985021  1  -1.19396  0  -0.791384  -1.146961  0  2.129817  0
