# generated using pymatgen
data_Zn4H58C67N20O3
_symmetry_space_group_name_H-M   'P 1'
_cell_length_a   13.20372598
_cell_length_b   15.20877184
_cell_length_c   16.92722518
_cell_angle_alpha   108.28521087
_cell_angle_beta   104.19750314
_cell_angle_gamma   109.53008558
_symmetry_Int_Tables_number   1
_chemical_formula_structural   Zn4H58C67N20O3
_chemical_formula_sum   'Zn4 H58 C67 N20 O3'
_cell_volume   2799.33781434
_cell_formula_units_Z   1
loop_
 _symmetry_equiv_pos_site_id
 _symmetry_equiv_pos_as_xyz
  1  'x, y, z'
loop_
 _atom_site_type_symbol
 _atom_site_label
 _atom_site_symmetry_multiplicity
 _atom_site_fract_x
 _atom_site_fract_y
 _atom_site_fract_z
 _atom_site_occupancy
 _atom_site_pbe_bader_charge
 _atom_site_pbe_bader_spin_density
 _atom_site_pbe_cm5_charge
 _atom_site_pbe_ddec_charge
 _atom_site_pbe_ddec_spin_density
 _atom_site_pbe_ddec_sum_bond_order
 _atom_site_pbe_magmom
Zn  Zn0  1  0.37518101  0.02187826  0.92783738  1  1.181208  0  0.73119  0.592523  0  2.524006  0
Zn  Zn1  1  0.61938369  0.00284953  0.14892020  1  1.151333  0  0.790742  0.699754  0  2.336292  0
Zn  Zn2  1  0.32945320  0.88742401  0.04429958  1  1.196841  0  0.752987  0.643101  0  2.44855  0
Zn  Zn3  1  0.67029585  0.10466701  0.98822872  1  1.183361  0  0.742959  0.686901  0  2.264273  0
H  H4  1  0.11463763  0.98986161  0.83406135  1  0.088974  0  0.116051  0.104204  0  1.009723  0
H  H5  1  0.86236755  0.12958556  0.31983830  1  0.077881  0  0.114803  0.101932  0  1.008065  0
H  H6  1  0.64764643  0.64341429  0.95529723  1  0.079279  0  0.092401  0.106566  0  1.034667  0
H  H7  1  0.54870895  0.40619095  0.86739796  1  0.054018  0  0.110292  0.068061  0  0.952267  0
H  H8  1  0.22403978  0.70428845  0.61468582  1  0.045964  0  0.099339  0.102759  0  1.007327  0
H  H9  1  0.24226056  0.51619241  0.75757841  1  0.050946  0  0.096813  0.097023  0  1.008666  0
H  H10  1  0.12176876  0.62125092  0.44862388  1  0.04593  0  0.098532  0.098576  0  0.999046  0
H  H11  1  0.12693907  0.35816113  0.61417752  1  0.049355  0  0.096013  0.095457  0  1.00465  0
H  H12  1  0.99272680  0.46398344  0.30705763  1  0.034532  0  0.097602  0.099177  0  1.008752  0
H  H13  1  0.01028414  0.27438600  0.44883160  1  0.028354  0  0.095568  0.097015  0  1.014383  0
H  H14  1  0.27555755  0.04521247  0.17800409  1  0.069195  0  0.111795  0.096565  0  1.030435  0
H  H15  1  0.26507651  0.66067603  0.88851634  1  0.052434  0  0.112527  0.097939  0  1.013957  0
H  H16  1  0.25352934  0.07890221  0.30980595  1  0.043956  0  0.092587  0.092644  0  1.018167  0
H  H17  1  0.71193527  0.30605021  0.62451589  1  0.021926  0  0.096558  0.094694  0  1.071907  0
H  H18  1  0.22896226  0.06642999  0.44636304  1  0.060659  0  0.092141  0.096351  0  1.012341  0
H  H19  1  0.32313430  0.07035443  0.59326241  1  0.041869  0  0.096974  0.099564  0  1.007056  0
H  H20  1  0.90418429  0.66848140  0.79946216  1  0.05916  0  0.095694  0.102581  0  1.010773  0
H  H21  1  0.67568421  0.57663535  0.72175681  1  0.078408  0  0.100215  0.109418  0  0.989716  0
H  H22  1  0.76463234  0.83706690  0.58477133  1  0.033364  0  0.089775  0.092563  0  0.987836  0
H  H23  1  0.70657654  0.90873941  0.64964982  1  0.049776  0  0.096277  0.103113  0  0.975509  0
H  H24  1  0.95099258  0.92275551  0.71981766  1  0.036533  0  0.093938  0.097388  0  0.999894  0
H  H25  1  0.90495109  0.01655005  0.76997567  1  0.02077  0  0.089822  0.091542  0  1.003578  0
H  H26  1  0.80922684  0.06982021  0.85936025  1  0.07323  0  0.106151  0.091705  0  1.029418  0
H  H27  1  0.64944796  0.18375376  0.32791884  1  0.115425  0  0.115497  0.101673  0  1.036275  0
H  H28  1  0.37997025  0.22075338  0.05718450  1  0.082653  0  0.11594  0.107371  0  0.996862  0
H  H29  1  0.86953905  0.32034933  0.17574851  1  0.084692  0  0.115404  0.104711  0  1.019157  0
H  H30  1  0.33050000  0.10804274  0.76000855  1  0.062064  0  0.110951  0.100022  0  1.005106  0
H  H31  1  0.69464358  0.86780663  0.05856994  1  0.451925  0  0.282921  0.22236  0  1.056858  0
H  H32  1  0.74026093  0.74238845  0.15540525  1  0.054879  0  0.098696  0.104058  0  1.012097  0
H  H33  1  0.78998608  0.87805764  0.21790777  1  0.015905  0  0.08186  0.075419  0  1.001941  0
H  H34  1  0.84253771  0.83282891  0.13356938  1  0.036877  0  0.099966  0.10504  0  1.012841  0
H  H35  1  0.38943108  0.52478957  0.21384390  1  0.394893  0  0.299538  0.241816  0  0.948876  0
H  H36  1  0.43809885  0.69252903  0.31251562  1  0.031432  0  0.102564  0.110888  0  0.979859  0
H  H37  1  0.76059284  0.80880186  0.92367067  1  0.065636  0  0.10597  0.092587  0  1.023035  0
H  H38  1  0.50500304  0.74376043  0.24767783  1  0.044343  0  0.094026  0.103006  0  1.031076  0
H  H39  1  0.57254693  0.69042168  0.31158657  1  0.005319  0  0.084581  0.080577  0  1.000285  0
H  H40  1  0.79408481  0.58949266  0.08505261  1  0.037976  0  0.091253  0.082879  0  1.019351  0
H  H41  1  0.81017914  0.65393622  0.01321094  1  0.022885  0  0.094417  0.090589  0  1.030942  0
H  H42  1  0.89152281  0.58301681  0.02803443  1  0.03166  0  0.102892  0.107716  0  0.978873  0
H  H43  1  0.70620425  0.33748820  0.52944795  1  0.407378  0  0.298585  0.237289  0  0.980882  0
H  H44  1  0.74191873  0.42930852  0.45010478  1  0.069842  0  0.105325  0.115476  0  0.977406  0
H  H45  1  0.59671779  0.41175823  0.43692946  1  0.041965  0  0.092208  0.093614  0  0.997982  0
H  H46  1  0.62161167  0.33077253  0.34949066  1  0.084558  0  0.093646  0.099103  0  1.028345  0
H  H47  1  0.82089908  0.39726216  0.77613683  1  0.068844  0  0.100719  0.101409  0  0.984935  0
H  H48  1  0.37001973  0.85271098  0.75260972  1  0.106011  0  0.119033  0.113685  0  1.007829  0
H  H49  1  0.84806857  0.29231062  0.71642829  1  0.031677  0  0.096075  0.090944  0  0.992969  0
H  H50  1  0.88271865  0.33635366  0.83552564  1  0.045457  0  0.105516  0.1072  0  0.98796  0
H  H51  1  0.72328322  0.40697213  0.00298644  1  0.482747  0  0.29411  0.240772  0  1.046872  0
H  H52  1  0.87088173  0.36660467  0.98893892  1  0.053801  0  0.108128  0.119554  0  0.974837  0
H  H53  1  0.74540041  0.24522880  0.92035853  1  0.06121  0  0.092826  0.09418  0  1.047501  0
H  H54  1  0.83592748  0.27566299  0.03354870  1  0.027416  0  0.095387  0.093625  0  1.029164  0
H  H55  1  0.94338008  0.85978149  0.03953921  1  0.06215  0  0.097853  0.097284  0  1.022236  0
H  H56  1  0.09273739  0.90802948  0.11281390  1  0.025327  0  0.095063  0.09172  0  1.012453  0
H  H57  1  0.98729127  0.78279693  0.08961042  1  0.053329  0  0.103673  0.107072  0  1.005701  0
H  H58  1  0.65161225  0.08197879  0.78241067  1  0.076782  0  0.1077  0.090523  0  1.039156  0
H  H59  1  0.30687176  0.67061569  0.09106013  1  0.069041  0  0.120517  0.110818  0  0.986663  0
H  H60  1  0.46182400  0.42135628  0.16135157  1  0.037092  0  0.095977  0.104991  0  1.016839  0
H  H61  1  0.50112187  0.55434702  0.88088900  1  0.051325  0  0.098155  0.116329  0  0.977113  0
C  C62  1  0.11632601  0.95095021  0.87791227  1  0.414363  0  0.007772  -0.041895  0  3.988363  0
C  C63  1  0.34949703  0.81975648  0.79824434  1  0.449748  0  0.010597  -0.034624  0  3.937483  0
C  C64  1  0.57223060  0.08289411  0.78888552  1  0.409013  0  -0.005018  -0.061985  0  4.037703  0
C  C65  1  0.85241233  0.16239068  0.27158704  1  0.372693  0  -0.00296  -0.067475  0  3.995476  0
C  C66  1  0.38913208  0.71996359  0.09214027  1  0.447212  0  0.018493  -0.019749  0  4.001803  0
C  C67  1  0.49654581  0.11380194  0.74305436  1  0.047333  0  -0.044628  -0.032471  0  4.105607  0
C  C68  1  0.48211174  0.69662108  0.08485881  1  0.01498  0  -0.035219  -0.10615  0  4.044204  0
C  C69  1  0.29684407  0.71558814  0.78301088  1  -0.039184  0  -0.036379  -0.04285  0  4.068764  0
C  C70  1  0.80651103  0.92243954  0.86393611  1  -0.002744  0  -0.047216  -0.062638  0  4.055739  0
C  C71  1  0.56278379  0.47532071  0.01011635  1  -0.048405  0  -0.045772  -0.124298  0  3.938303  0
C  C72  1  0.53095912  0.41785826  0.05822231  1  0.004629  0  -0.010617  0.101139  0  4.084474  0
C  C73  1  0.90637986  0.26484755  0.28389330  1  0.003263  0  -0.035577  -0.033386  0  4.073254  0
C  C74  1  0.48344705  0.45897761  0.11826004  1  -0.041223  0  -0.112882  -0.267921  0  3.97602  0
C  C75  1  0.46664808  0.54821681  0.12957218  1  0.372205  0  0.085775  0.182177  0  4.046201  0
C  C76  1  0.49605524  0.60329618  0.07751224  1  0.047128  0  -0.023651  -0.051314  0  4.012459  0
C  C77  1  0.36915283  0.07054361  0.20260273  1  0.410494  0  0.006093  -0.050605  0  3.961681  0
C  C78  1  0.54301843  0.56179856  0.01861222  1  -0.08774  0  -0.016664  0.049901  0  3.962435  0
C  C79  1  0.57457548  0.57082690  0.94007774  1  -0.066841  0  -0.159917  -0.267949  0  3.863761  0
C  C80  1  0.60159329  0.47559278  0.93212535  1  0.457516  0  0.009225  0.141991  0  3.818188  0
C  C81  1  0.24037859  0.62278577  0.69695587  1  0.041546  0  -0.00948  0.092786  0  4.05316  0
C  C82  1  0.99023050  0.35673221  0.36762460  1  -0.047779  0  -0.016018  0.08096  0  4.070258  0
C  C83  1  0.09708556  0.54519857  0.44867336  1  -0.006523  0  -0.09591  -0.137068  0  4.025738  0
C  C84  1  0.45706141  0.14049509  0.28934419  1  0.026069  0  -0.032823  -0.019544  0  4.047537  0
C  C85  1  0.02516864  0.45706097  0.36950067  1  -0.093326  0  -0.098968  -0.140775  0  4.017556  0
C  C86  1  0.03387955  0.35002292  0.44800008  1  0.008243  0  -0.096369  -0.191379  0  3.951522  0
C  C87  1  0.10678987  0.43915588  0.53073452  1  -0.02932  0  -0.012966  0.076546  0  4.025689  0
C  C88  1  0.13855338  0.53965766  0.53194469  1  -0.002872  0  -0.012429  0.080052  0  4.021745  0
C  C89  1  0.62893745  0.29482271  0.03068265  1  0.945789  0  0.204793  0.295981  0  4.057193  0
C  C90  1  0.20493577  0.62892886  0.61524042  1  -0.061275  0  -0.093057  -0.18788  0  3.938255  0
C  C91  1  0.21222860  0.52255634  0.69443872  1  -0.060316  0  -0.098859  -0.141127  0  4.014096  0
C  C92  1  0.14795578  0.43406614  0.61431177  1  -0.0334  0  -0.098222  -0.139733  0  4.030439  0
C  C93  1  0.44125284  0.17306029  0.37478871  1  -0.022013  0  -0.027631  -0.026614  0  4.013793  0
C  C94  1  0.50578898  0.15296521  0.67533780  1  0.051596  0  -0.019849  -0.006328  0  4.055621  0
C  C95  1  0.54081704  0.32261559  0.04770233  1  0.020379  0  -0.047948  -0.145452  0  4.064434  0
C  C96  1  0.62561929  0.25468074  0.61611800  1  -0.015712  0  -0.12643  -0.29189  0  4.049061  0
C  C97  1  0.61636143  0.22175616  0.68262750  1  0.44103  0  0.077515  0.207056  0  4.042356  0
C  C98  1  0.40823637  0.12362839  0.60063310  1  -0.069846  0  -0.095456  -0.175944  0  3.982199  0
C  C99  1  0.41490971  0.15219803  0.52961113  1  -0.012121  0  -0.021764  0.076652  0  4.071292  0
C  C100  1  0.52669495  0.21723021  0.53594731  1  0.013588  0  -0.017714  0.006666  0  3.999122  0
C  C101  1  0.55995754  0.14158859  0.27850767  1  0.390591  0  0.008304  -0.042852  0  3.953976  0
C  C102  1  0.53711125  0.23387229  0.45872003  1  0.368939  0  0.093387  0.135035  0  3.985692  0
C  C103  1  0.32906638  0.11975653  0.37390819  1  0.004565  0  -0.107363  -0.133968  0  4.083385  0
C  C104  1  0.31500767  0.11109349  0.44923290  1  -0.0928  0  -0.11784  -0.175504  0  4.084918  0
C  C105  1  0.83430718  0.86954085  0.78781771  1  0.023623  0  0.014688  0.089531  0  3.757366  0
C  C106  1  0.40751356  0.09496190  0.77611241  1  0.363461  0  -0.002672  -0.069235  0  4.009491  0
C  C107  1  0.90260460  0.81168274  0.81319339  1  0.064695  0  -0.00074  0.061115  0  3.886801  0
C  C108  1  0.85324857  0.70595147  0.77661235  1  -0.112635  0  -0.099479  -0.145368  0  3.953144  0
C  C109  1  0.72919969  0.64647677  0.71800611  1  -0.074036  0  -0.103604  -0.092134  0  4.103618  0
C  C110  1  0.68776882  0.69488236  0.67397964  1  -0.240379  0  -0.090985  -0.173609  0  3.843809  0
C  C111  1  0.73040935  0.79426495  0.69324564  1  0.070167  0  -0.022087  0.049458  0  3.938791  0
C  C112  1  0.76099320  0.86749988  0.65161662  1  -0.023755  0  -0.157015  -0.182581  0  3.93339  0
C  C113  1  0.46227421  0.23478188  0.04906413  1  0.386882  0  0.003906  -0.037867  0  4.015376  0
C  C114  1  0.87911738  0.93351068  0.73550591  1  -0.014898  0  -0.14765  -0.186309  0  3.799373  0
C  C115  1  0.85461305  0.25859562  0.19728356  1  0.448605  0  0.008975  -0.03989  0  3.961493  0
C  C116  1  0.08099276  0.85299613  0.94916905  1  1.019737  0  0.179313  0.286114  0  4.091322  0
C  C117  1  0.56382535  0.78659777  0.08697633  1  0.880022  0  0.198607  0.279783  0  4.061425  0
C  C118  1  0.02351085  0.87207371  0.87904871  1  0.055634  0  -0.037719  -0.134715  0  4.084179  0
C  C119  1  0.76543983  0.81647606  0.15061986  1  0.278821  0  -0.139944  -0.200478  0  3.974678  0
C  C120  1  0.48785241  0.68197420  0.27003451  1  0.2936  0  -0.145884  -0.214671  0  3.992634  0
C  C121  1  0.80788961  0.58507969  0.02247023  1  0.427085  0  -0.149163  -0.181941  0  3.961461  0
C  C122  1  0.65060849  0.37157337  0.42309525  1  0.215712  0  -0.141227  -0.219227  0  3.975469  0
C  C123  1  0.82119952  0.32342576  0.77150819  1  0.411215  0  -0.135174  -0.169445  0  3.945478  0
C  C124  1  0.79732288  0.30668704  0.99016733  1  0.259204  0  -0.140948  -0.216525  0  3.968056  0
C  C125  1  0.01344898  0.83817093  0.06131760  1  0.39277  0  -0.139042  -0.170208  0  3.906456  0
C  C126  1  0.29755317  0.72192033  0.86803708  1  0.437882  0  0.003666  -0.047384  0  3.964455  0
C  C127  1  0.79149456  0.01240062  0.88589223  1  0.381353  0  -0.015423  -0.077325  0  4.025289  0
C  C128  1  0.76697331  0.88073364  0.92061149  1  0.399683  0  -0.007464  -0.055178  0  4.031283  0
N  N129  1  0.21934987  0.97420870  0.93999305  1  -0.789107  0  -0.279062  -0.169721  0  3.547977  0
N  N130  1  0.41573548  0.03041049  0.14678158  1  -0.784195  0  -0.284864  -0.196659  0  3.638372  0
N  N131  1  0.60172700  0.19838032  0.02336963  1  -0.823127  0  -0.301868  -0.27564  0  3.581083  0
N  N132  1  0.53298173  0.07445418  0.19372100  1  -0.812106  0  -0.29405  -0.191732  0  3.659383  0
N  N133  1  0.49720395  0.15919341  0.03324919  1  -0.788986  0  -0.300112  -0.218814  0  3.537019  0
N  N134  1  0.77710158  0.16094472  0.13835386  1  -0.763544  0  -0.257208  -0.206907  0  3.461316  0
N  N135  1  0.19645945  0.91335889  0.98480149  1  -0.821535  0  -0.282724  -0.279922  0  3.543266  0
N  N136  1  0.43061050  0.05729786  0.83694398  1  -0.808262  0  -0.286488  -0.176214  0  3.628647  0
N  N137  1  0.67074594  0.81006609  0.07963729  1  -1.171269  0  -0.455544  -0.338442  0  3.554307  0
N  N138  1  0.41786764  0.58021208  0.19213807  1  -1.115155  0  -0.467176  -0.337754  0  3.489783  0
N  N139  1  0.64463540  0.30073146  0.46563870  1  -1.144655  0  -0.453922  -0.299817  0  3.549717  0
N  N140  1  0.52200286  0.85799472  0.09915529  1  -0.826844  0  -0.314294  -0.3082  0  3.655052  0
N  N141  1  0.73105375  0.35493444  0.02760724  1  -1.211912  0  -0.462363  -0.339481  0  3.537109  0
N  N142  1  0.34463949  0.82190176  0.92747754  1  -0.804221  0  -0.286439  -0.18708  0  3.636145  0
N  N143  1  0.74720680  0.02186245  0.95072878  1  -0.812523  0  -0.296911  -0.186282  0  3.707743  0
N  N144  1  0.73177349  0.94053964  0.97293057  1  -0.725571  0  -0.264037  -0.23615  0  3.291331  0
N  N145  1  0.37712794  0.88234374  0.88501940  1  -0.792242  0  -0.282266  -0.195147  0  3.6031  0
N  N146  1  0.53263238  0.04932865  0.84510399  1  -0.768999  0  -0.269269  -0.234395  0  3.450147  0
N  N147  1  0.41230726  0.81632147  0.10056507  1  -0.806205  0  -0.287614  -0.207753  0  3.541626  0
N  N148  1  0.77664040  0.10098792  0.18425124  1  -0.793985  0  -0.303957  -0.198655  0  3.645229  0
O  O149  1  0.72000537  0.49217916  0.94555029  1  -1.036094  0  -0.232669  -0.212069  0  2.470882  0
O  O150  1  0.71014713  0.25116228  0.75893782  1  -1.081167  0  -0.184662  -0.157079  0  2.608703  0
O  O151  1  0.03632721  0.78732473  0.98475970  1  -1.095985  0  -0.210506  -0.218986  0  2.52229  0
