# generated using pymatgen
data_ZnH16PdC24(NO2)4
_symmetry_space_group_name_H-M   'P 1'
_cell_length_a   11.90816339
_cell_length_b   11.90811364
_cell_length_c   26.55974432
_cell_angle_alpha   90.00031068
_cell_angle_beta   90.00027636
_cell_angle_gamma   92.34042217
_symmetry_Int_Tables_number   1
_chemical_formula_structural   ZnH16PdC24(NO2)4
_chemical_formula_sum   'Zn4 H64 Pd4 C96 N16 O32'
_cell_volume   3763.12998880
_cell_formula_units_Z   4
loop_
 _symmetry_equiv_pos_site_id
 _symmetry_equiv_pos_as_xyz
  1  'x, y, z'
loop_
 _atom_site_type_symbol
 _atom_site_label
 _atom_site_symmetry_multiplicity
 _atom_site_fract_x
 _atom_site_fract_y
 _atom_site_fract_z
 _atom_site_occupancy
 _atom_site_pbe_bader_charge
 _atom_site_pbe_bader_spin_density
 _atom_site_pbe_cm5_charge
 _atom_site_pbe_ddec_charge
 _atom_site_pbe_ddec_spin_density
 _atom_site_pbe_ddec_sum_bond_order
 _atom_site_pbe_magmom
Zn  Zn0  1  0.75000107  0.74999493  0.83803465  1  1.324873  0  0.668434  0.952427  0  2.233085  0
Zn  Zn1  1  0.25000404  0.25000585  0.66196290  1  1.324815  0  0.668493  0.952526  0  2.232954  0
Zn  Zn2  1  0.25000037  0.25000518  0.16196637  1  1.32473  0  0.668497  0.952491  0  2.233209  0
Zn  Zn3  1  0.74999560  0.74999918  0.33803812  1  1.324916  0  0.668554  0.952641  0  2.23296  0
H  H4  1  0.60031665  0.13544253  0.16571628  1  0.149648  0  0.122078  0.103498  0  0.989912  0
H  H5  1  0.89967920  0.36456602  0.16572178  1  0.14983  0  0.122076  0.10349  0  0.989902  0
H  H6  1  0.63543328  0.10031688  0.33427776  1  0.149788  0  0.122056  0.103482  0  0.989875  0
H  H7  1  0.86455816  0.39967491  0.33428063  1  0.149796  0  0.122048  0.103484  0  0.989933  0
H  H8  1  0.39968377  0.86456507  0.83428362  1  0.149826  0  0.122084  0.103531  0  0.989864  0
H  H9  1  0.10031279  0.63544187  0.83428414  1  0.149598  0  0.122099  0.103508  0  0.989905  0
H  H10  1  0.36455812  0.89968090  0.66572138  1  0.149773  0  0.122077  0.103499  0  0.989805  0
H  H11  1  0.13543498  0.60032046  0.66571964  1  0.149796  0  0.122078  0.103524  0  0.989895  0
H  H12  1  0.62202035  0.99335527  0.23519542  1  0.131756  0  0.122216  0.138414  0  0.981107  0
H  H13  1  0.87795957  0.50664366  0.23520415  1  0.132766  0  0.122223  0.138419  0  0.981197  0
H  H14  1  0.49335063  0.12204555  0.26479729  1  0.132883  0  0.122253  0.138424  0  0.98133  0
H  H15  1  0.00663937  0.37797037  0.26479820  1  0.132512  0  0.122252  0.138433  0  0.981146  0
H  H16  1  0.37797515  0.00664697  0.76480221  1  0.132355  0  0.122258  0.138406  0  0.981063  0
H  H17  1  0.12202498  0.49335872  0.76480102  1  0.132133  0  0.122293  0.138464  0  0.981044  0
H  H18  1  0.50663967  0.87796308  0.73520298  1  0.132536  0  0.122253  0.138438  0  0.981196  0
H  H19  1  0.99335607  0.62203439  0.73520207  1  0.132813  0  0.122253  0.138432  0  0.981141  0
H  H20  1  0.97336666  0.98578978  0.19854409  1  0.167459  0  0.12339  0.145199  0  0.980719  0
H  H21  1  0.52661063  0.51419595  0.19854039  1  0.167524  0  0.123359  0.145229  0  0.980724  0
H  H22  1  0.48580242  0.47339248  0.30146373  1  0.167484  0  0.123373  0.145267  0  0.980697  0
H  H23  1  0.01419906  0.02661789  0.30145438  1  0.16737  0  0.123393  0.145267  0  0.98079  0
H  H24  1  0.02662645  0.01420643  0.80145580  1  0.167509  0  0.123428  0.145324  0  0.980618  0
H  H25  1  0.47337408  0.48579972  0.80145875  1  0.167573  0  0.12342  0.14534  0  0.9806  0
H  H26  1  0.51419878  0.52661769  0.69854182  1  0.167446  0  0.123403  0.145317  0  0.980662  0
H  H27  1  0.98580061  0.97338546  0.69854100  1  0.16758  0  0.123378  0.145298  0  0.980633  0
H  H28  1  0.94169660  0.12576193  0.12988233  1  0.155009  0  0.115281  0.108925  0  1.057166  0
H  H29  1  0.55830179  0.37422873  0.12987732  1  0.154535  0  0.115305  0.108988  0  1.056976  0
H  H30  1  0.62576932  0.44169521  0.37012602  1  0.154435  0  0.115292  0.108943  0  1.056969  0
H  H31  1  0.87423522  0.05829364  0.37011868  1  0.154822  0  0.115248  0.108928  0  1.057007  0
H  H32  1  0.05830142  0.87424048  0.87011982  1  0.154685  0  0.115299  0.108941  0  1.057098  0
H  H33  1  0.44170131  0.62577232  0.87012145  1  0.154613  0  0.11527  0.108951  0  1.057004  0
H  H34  1  0.37423142  0.55829897  0.62987877  1  0.154783  0  0.115315  0.108962  0  1.056949  0
H  H35  1  0.12576892  0.94169907  0.62987933  1  0.154834  0  0.115292  0.108953  0  1.05707  0
H  H36  1  0.89568674  0.42089350  0.03622624  1  0.066909  0  0.119319  0.092029  0  0.988222  0
H  H37  1  0.60432888  0.07910640  0.03622212  1  0.067227  0  0.119314  0.092049  0  0.988349  0
H  H38  1  0.92089616  0.39566922  0.46377403  1  0.067191  0  0.119294  0.092069  0  0.988349  0
H  H39  1  0.57911041  0.10431416  0.46377481  1  0.067054  0  0.119298  0.091992  0  0.988156  0
H  H40  1  0.10432316  0.57910463  0.96377779  1  0.067128  0  0.119272  0.09202  0  0.988287  0
H  H41  1  0.39567246  0.92089790  0.96377891  1  0.067172  0  0.1193  0.092006  0  0.988359  0
H  H42  1  0.07910377  0.60432323  0.53622473  1  0.067099  0  0.119297  0.09196  0  0.988254  0
H  H43  1  0.42088945  0.89568165  0.53622697  1  0.066978  0  0.119311  0.092025  0  0.988198  0
H  H44  1  0.87264735  0.55520009  0.96326994  1  0.107663  0  0.116559  0.128638  0  0.98933  0
H  H45  1  0.62737042  0.94479394  0.96326827  1  0.107849  0  0.116612  0.128778  0  0.989164  0
H  H46  1  0.05520036  0.37264005  0.53673083  1  0.107788  0  0.116636  0.128756  0  0.989188  0
H  H47  1  0.44479978  0.12736210  0.53672870  1  0.107805  0  0.116596  0.12872  0  0.989289  0
H  H48  1  0.12737197  0.44479109  0.03672957  1  0.107868  0  0.11661  0.128731  0  0.989214  0
H  H49  1  0.37263353  0.05520633  0.03673276  1  0.107796  0  0.116615  0.128769  0  0.989204  0
H  H50  1  0.94479763  0.62736319  0.46326831  1  0.107797  0  0.116614  0.128717  0  0.989186  0
H  H51  1  0.55520242  0.87264142  0.46327307  1  0.107799  0  0.116564  0.128641  0  0.989375  0
H  H52  1  0.52430658  0.44716951  0.95737517  1  0.11805  0  0.11741  0.126436  0  0.990054  0
H  H53  1  0.97570106  0.05282817  0.95737594  1  0.117873  0  0.117451  0.126499  0  0.990106  0
H  H54  1  0.94716864  0.02429760  0.54262753  1  0.117855  0  0.11746  0.126562  0  0.989933  0
H  H55  1  0.55283088  0.47570137  0.54262049  1  0.117968  0  0.11744  0.126433  0  0.990169  0
H  H56  1  0.47570840  0.55282726  0.04262133  1  0.117856  0  0.117451  0.126442  0  0.990191  0
H  H57  1  0.02429540  0.94716909  0.04262809  1  0.117798  0  0.117463  0.12658  0  0.989985  0
H  H58  1  0.05283535  0.97570099  0.45737236  1  0.117881  0  0.11745  0.12651  0  0.989961  0
H  H59  1  0.44716882  0.52430114  0.45737601  1  0.117976  0  0.11744  0.126466  0  0.990098  0
H  H60  1  0.55819904  0.31775764  0.02960407  1  0.148605  0  0.11767  0.102042  0  1.02618  0
H  H61  1  0.94181219  0.18224693  0.02960019  1  0.148503  0  0.117639  0.102074  0  1.026082  0
H  H62  1  0.81775705  0.05818490  0.47039782  1  0.148481  0  0.117631  0.102031  0  1.026185  0
H  H63  1  0.68225278  0.44180632  0.47039663  1  0.148454  0  0.11767  0.102056  0  1.026108  0
H  H64  1  0.44180396  0.68224760  0.97039808  1  0.148575  0  0.117677  0.102104  0  1.026068  0
H  H65  1  0.05818913  0.81775821  0.97039933  1  0.148558  0  0.117656  0.102059  0  1.026073  0
H  H66  1  0.18224701  0.94181117  0.52960208  1  0.148562  0  0.117639  0.101998  0  1.026083  0
H  H67  1  0.31774696  0.55819452  0.52959988  1  0.148573  0  0.117704  0.102088  0  1.026099  0
Pd  Pd68  1  0.75000691  0.24999769  0.09059010  1  0.722598  0  0.8906  0.294308  0  3.144359  0
Pd  Pd69  1  0.75000540  0.24999612  0.40940906  1  0.722731  0  0.890619  0.294349  0  3.144409  0
Pd  Pd70  1  0.24999615  0.75000504  0.90941167  1  0.722554  0  0.890555  0.29417  0  3.144494  0
Pd  Pd71  1  0.24999614  0.74999979  0.59059083  1  0.722701  0  0.890632  0.294302  0  3.144424  0
C  C72  1  0.87263362  0.09428636  0.15378870  1  0.432451  0  0.0335  0.056991  0  3.889653  0
C  C73  1  0.62735739  0.40570746  0.15378655  1  0.43296  0  0.03365  0.057074  0  3.889444  0
C  C74  1  0.59428668  0.37263748  0.34621641  1  0.433358  0  0.03353  0.057058  0  3.889569  0
C  C75  1  0.90571076  0.12735483  0.34620893  1  0.432167  0  0.03368  0.057088  0  3.889487  0
C  C76  1  0.12736532  0.90571275  0.84621383  1  0.433037  0  0.033475  0.057051  0  3.889546  0
C  C77  1  0.37263558  0.59429461  0.84621334  1  0.432359  0  0.033578  0.057055  0  3.889546  0
C  C78  1  0.40571145  0.62735989  0.65378725  1  0.432757  0  0.033558  0.057071  0  3.889577  0
C  C79  1  0.09429165  0.87263946  0.65378720  1  0.4328  0  0.033564  0.057055  0  3.889555  0
C  C80  1  0.88977571  0.01680410  0.19181873  1  -0.008229  0  -0.066286  -0.121179  0  3.904273  0
C  C81  1  0.61020662  0.48318373  0.19181899  1  -0.008919  0  -0.066224  -0.121141  0  3.903732  0
C  C82  1  0.51681682  0.38979553  0.30818285  1  -0.008997  0  -0.066235  -0.12126  0  3.903767  0
C  C83  1  0.98318997  0.11021037  0.30817700  1  -0.008328  0  -0.066315  -0.121207  0  3.904038  0
C  C84  1  0.11021748  0.98318875  0.80818154  1  -0.008763  0  -0.066326  -0.121339  0  3.903979  0
C  C85  1  0.38978054  0.51681545  0.80818203  1  -0.008383  0  -0.066355  -0.121329  0  3.90399  0
C  C86  1  0.48318362  0.61021123  0.69182006  1  -0.008851  0  -0.066311  -0.12132  0  3.904048  0
C  C87  1  0.01681066  0.88978800  0.69181649  1  -0.009244  0  -0.066251  -0.12129  0  3.903834  0
C  C88  1  0.79945793  0.98038796  0.22212959  1  -0.074632  0  0.013566  0.035625  0  3.90898  0
C  C89  1  0.70052541  0.51960264  0.22213268  1  -0.075661  0  0.013513  0.035724  0  3.908585  0
C  C90  1  0.48038923  0.29947945  0.27787028  1  -0.075622  0  0.013458  0.035734  0  3.908413  0
C  C91  1  0.01960606  0.20053192  0.27786589  1  -0.075538  0  0.013586  0.035539  0  3.908678  0
C  C92  1  0.20053683  0.01961004  0.77786956  1  -0.075019  0  0.013527  0.035516  0  3.908774  0
C  C93  1  0.29946342  0.48039665  0.77786947  1  -0.075287  0  0.013586  0.035669  0  3.908608  0
C  C94  1  0.51960614  0.70052782  0.72213225  1  -0.075675  0  0.013522  0.035628  0  3.908564  0
C  C95  1  0.98039526  0.79947322  0.72213061  1  -0.075429  0  0.013423  0.035568  0  3.90833  0
C  C96  1  0.81725331  0.89678814  0.26410995  1  1.626418  0  0.19171  0.540431  0  4.275327  0
C  C97  1  0.68272031  0.60320653  0.26410945  1  1.626484  0  0.191636  0.540291  0  4.27568  0
C  C98  1  0.39679139  0.31727977  0.23589202  1  1.62612  0  0.19168  0.54027  0  4.275433  0
C  C99  1  0.10320584  0.18273628  0.23588815  1  1.626522  0  0.191689  0.540421  0  4.275528  0
C  C100  1  0.18273886  0.10321221  0.73588994  1  1.626216  0  0.191725  0.540454  0  4.275128  0
C  C101  1  0.31726411  0.39680172  0.73588856  1  1.626839  0  0.191776  0.540619  0  4.275481  0
C  C102  1  0.60320805  0.68273365  0.76411051  1  1.626284  0  0.191725  0.54041  0  4.275317  0
C  C103  1  0.89679554  0.81726635  0.76410798  1  1.626126  0  0.191676  0.540489  0  4.275001  0
C  C104  1  0.69352797  0.02209990  0.21243431  1  0.067027  0  -0.070155  -0.12893  0  3.931787  0
C  C105  1  0.80645437  0.47789742  0.21244026  1  0.066221  0  -0.07029  -0.129236  0  3.93207  0
C  C106  1  0.52210099  0.19354789  0.28756043  1  0.066231  0  -0.070224  -0.129162  0  3.932056  0
C  C107  1  0.97789206  0.30645940  0.28756032  1  0.066634  0  -0.070274  -0.128997  0  3.931651  0
C  C108  1  0.30646504  0.97790051  0.78756332  1  0.066671  0  -0.070253  -0.128924  0  3.931624  0
C  C109  1  0.19353271  0.52210512  0.78756453  1  0.066857  0  -0.070269  -0.129051  0  3.931526  0
C  C110  1  0.47789438  0.80645938  0.71244022  1  0.066569  0  -0.070275  -0.129093  0  3.93177  0
C  C111  1  0.02210431  0.69354121  0.71243770  1  0.066692  0  -0.070191  -0.128987  0  3.931614  0
C  C112  1  0.68103712  0.09918233  0.17384027  1  0.365893  0  0.03548  0.05615  0  3.927748  0
C  C113  1  0.81895646  0.40081946  0.17384493  1  0.366125  0  0.035618  0.056462  0  3.927439  0
C  C114  1  0.59917782  0.18104330  0.32615688  1  0.366569  0  0.035574  0.056352  0  3.927492  0
C  C115  1  0.90081252  0.31895504  0.32615625  1  0.365621  0  0.035589  0.056254  0  3.927415  0
C  C116  1  0.31896328  0.90082611  0.82616000  1  0.365859  0  0.035567  0.056208  0  3.92725  0
C  C117  1  0.18103472  0.59918754  0.82615835  1  0.366118  0  0.035495  0.05631  0  3.927322  0
C  C118  1  0.40081692  0.81895554  0.67384452  1  0.365732  0  0.035653  0.056387  0  3.927299  0
C  C119  1  0.09917891  0.68104106  0.67384327  1  0.365939  0  0.035581  0.056225  0  3.92736  0
C  C120  1  0.62640692  0.36940613  0.01313116  1  0.410149  0  0.038705  0.064279  0  3.912694  0
C  C121  1  0.87360508  0.13059326  0.01312964  1  0.41118  0  0.038788  0.064252  0  3.912542  0
C  C122  1  0.86940807  0.12639258  0.48686950  1  0.410764  0  0.038777  0.064298  0  3.912455  0
C  C123  1  0.63060108  0.37359963  0.48686879  1  0.410402  0  0.038783  0.064498  0  3.912686  0
C  C124  1  0.37360292  0.63059452  0.98686986  1  0.410969  0  0.038727  0.064251  0  3.912509  0
C  C125  1  0.12639714  0.86940941  0.98687026  1  0.411097  0  0.038774  0.064349  0  3.912416  0
C  C126  1  0.13059437  0.87360087  0.51312964  1  0.41065  0  0.038811  0.06449  0  3.912443  0
C  C127  1  0.36939866  0.62640120  0.51312998  1  0.41057  0  0.038753  0.064411  0  3.912666  0
C  C128  1  0.60785564  0.44256900  0.97361337  1  -0.043156  0  -0.069301  -0.127117  0  3.936011  0
C  C129  1  0.89215479  0.05742486  0.97361208  1  -0.043728  0  -0.069453  -0.127332  0  3.936112  0
C  C130  1  0.94256951  0.10784543  0.52638801  1  -0.043464  0  -0.069384  -0.12728  0  3.936034  0
C  C131  1  0.55743153  0.39215261  0.52638266  1  -0.043189  0  -0.069416  -0.127333  0  3.93643  0
C  C132  1  0.39215608  0.55742337  0.02638578  1  -0.043622  0  -0.069387  -0.127206  0  3.93635  0
C  C133  1  0.10784344  0.94256832  0.02638894  1  -0.043392  0  -0.069411  -0.127392  0  3.936086  0
C  C134  1  0.05743112  0.89215295  0.47361151  1  -0.04326  0  -0.069388  -0.127288  0  3.936034  0
C  C135  1  0.44257153  0.60785012  0.47361610  1  -0.043164  0  -0.069429  -0.127331  0  3.936372  0
C  C136  1  0.69598417  0.51237747  0.95561827  1  0.058085  0  0.019468  0.046803  0  3.89928  0
C  C137  1  0.80403032  0.98760954  0.95561934  1  0.057785  0  0.019608  0.047112  0  3.899443  0
C  C138  1  0.01237768  0.19597244  0.54438162  1  0.058317  0  0.019501  0.046926  0  3.899365  0
C  C139  1  0.48761843  0.30402618  0.54437813  1  0.058049  0  0.019558  0.046915  0  3.899355  0
C  C140  1  0.30403109  0.48760757  0.04437598  1  0.058377  0  0.01953  0.046969  0  3.899514  0
C  C141  1  0.19596878  0.01238286  0.04438244  1  0.057994  0  0.019594  0.047071  0  3.899316  0
C  C142  1  0.98762294  0.80402677  0.45561564  1  0.057996  0  0.01954  0.046901  0  3.899315  0
C  C143  1  0.51238211  0.69597639  0.45562251  1  0.058003  0  0.019504  0.046899  0  3.899346  0
C  C144  1  0.80214635  0.50340878  0.97753575  1  -0.014948  0  -0.071776  -0.132973  0  3.938737  0
C  C145  1  0.69787241  0.99658548  0.97753360  1  -0.014988  0  -0.071922  -0.133227  0  3.939172  0
C  C146  1  0.00340864  0.30213264  0.52246361  1  -0.014909  0  -0.071937  -0.133212  0  3.938999  0
C  C147  1  0.49659061  0.19786509  0.52246214  1  -0.014847  0  -0.071929  -0.133234  0  3.939113  0
C  C148  1  0.19787133  0.49658061  0.02246150  1  -0.01503  0  -0.071832  -0.133034  0  3.939054  0
C  C149  1  0.30212988  0.00341384  0.02246742  1  -0.015004  0  -0.071895  -0.133232  0  3.939356  0
C  C150  1  0.99659114  0.69786652  0.47753365  1  -0.015007  0  -0.071864  -0.13316  0  3.939075  0
C  C151  1  0.50341165  0.80213591  0.47753964  1  -0.01509  0  -0.071873  -0.133076  0  3.93893  0
C  C152  1  0.81529969  0.42952155  0.01728434  1  0.47427  0  0.035557  0.056835  0  3.950573  0
C  C153  1  0.68471654  0.07047901  0.01728188  1  0.474422  0  0.035533  0.056731  0  3.951013  0
C  C154  1  0.92952437  0.31528507  0.48271501  1  0.474245  0  0.035535  0.056722  0  3.95109  0
C  C155  1  0.57048141  0.18470520  0.48271747  1  0.474197  0  0.035649  0.057024  0  3.950722  0
C  C156  1  0.18471442  0.57047685  0.98271668  1  0.47446  0  0.035538  0.05672  0  3.951147  0
C  C157  1  0.31528809  0.92952803  0.98271877  1  0.474364  0  0.035529  0.05688  0  3.951259  0
C  C158  1  0.07047381  0.68471063  0.51728187  1  0.474346  0  0.03556  0.057059  0  3.950948  0
C  C159  1  0.42951920  0.81529401  0.51728581  1  0.474519  0  0.035659  0.056927  0  3.950717  0
C  C160  1  0.67564895  0.60006729  0.91570720  1  1.650257  0  0.205365  0.566183  0  4.252457  0
C  C161  1  0.82436681  0.89991764  0.91570999  1  1.649612  0  0.204969  0.565678  0  4.253311  0
C  C162  1  0.10006893  0.17563801  0.58429096  1  1.649581  0  0.205266  0.565968  0  4.252547  0
C  C163  1  0.39992070  0.32436906  0.58428658  1  1.649784  0  0.205156  0.566024  0  4.252835  0
C  C164  1  0.32436803  0.39991618  0.08428855  1  1.649157  0  0.205034  0.565805  0  4.253195  0
C  C165  1  0.17563558  0.10007748  0.08429254  1  1.649434  0  0.205226  0.566002  0  4.252621  0
C  C166  1  0.89992927  0.82435685  0.41570667  1  1.649863  0  0.205278  0.566062  0  4.25253  0
C  C167  1  0.60007892  0.67563681  0.41571331  1  1.649825  0  0.205075  0.565828  0  4.253046  0
N  N168  1  0.72852391  0.36427413  0.03492553  1  -1.183522  0  -0.364198  -0.139579  0  3.704749  0
N  N169  1  0.77149327  0.13573005  0.03492228  1  -1.184478  0  -0.364019  -0.139288  0  3.704391  0
N  N170  1  0.86427369  0.22850931  0.46507423  1  -1.184066  0  -0.364103  -0.139428  0  3.704556  0
N  N171  1  0.63573019  0.27148147  0.46507554  1  -1.184004  0  -0.36418  -0.139666  0  3.704743  0
N  N172  1  0.27148927  0.63572757  0.96507700  1  -1.184491  0  -0.364087  -0.139429  0  3.704605  0
N  N173  1  0.22851393  0.86427547  0.96507799  1  -1.18435  0  -0.364085  -0.139502  0  3.704657  0
N  N174  1  0.13572621  0.77148482  0.53492378  1  -1.184042  0  -0.364164  -0.139718  0  3.704754  0
N  N175  1  0.36426706  0.72851753  0.53492511  1  -1.184279  0  -0.364234  -0.139636  0  3.704831  0
N  N176  1  0.76966154  0.13432656  0.14523622  1  -1.177343  0  -0.366249  -0.142974  0  3.722944  0
N  N177  1  0.73033352  0.36566994  0.14523759  1  -1.176797  0  -0.366358  -0.143232  0  3.722877  0
N  N178  1  0.63433197  0.26966446  0.35476423  1  -1.177209  0  -0.366242  -0.143066  0  3.723047  0
N  N179  1  0.86567062  0.23032828  0.35476105  1  -1.176792  0  -0.366355  -0.143072  0  3.722919  0
N  N180  1  0.23033738  0.86567338  0.85476405  1  -1.177328  0  -0.366255  -0.14299  0  3.722786  0
N  N181  1  0.26966025  0.63433387  0.85476457  1  -1.176895  0  -0.366261  -0.143177  0  3.722985  0
N  N182  1  0.36566617  0.73033291  0.64523868  1  -1.176776  0  -0.366347  -0.143123  0  3.722769  0
N  N183  1  0.13433098  0.76966511  0.64523809  1  -1.177234  0  -0.366296  -0.143004  0  3.722634  0
O  O184  1  0.73448408  0.88610840  0.29573327  1  -1.174434  0  -0.334319  -0.570429  0  2.279936  0
O  O185  1  0.76548669  0.61387974  0.29573787  1  -1.173972  0  -0.334274  -0.5704  0  2.28019  0
O  O186  1  0.38611613  0.23450745  0.20426887  1  -1.173609  0  -0.334315  -0.570332  0  2.280174  0
O  O187  1  0.11388493  0.26550930  0.20426559  1  -1.174298  0  -0.334312  -0.570459  0  2.28001  0
O  O188  1  0.26550983  0.11388954  0.70426662  1  -1.174267  0  -0.334342  -0.570437  0  2.279998  0
O  O189  1  0.23449369  0.38612153  0.70426654  1  -1.173909  0  -0.334384  -0.570529  0  2.280231  0
O  O190  1  0.61387930  0.76549731  0.79573442  1  -1.17417  0  -0.334288  -0.570377  0  2.280381  0
O  O191  1  0.88611451  0.73450411  0.79573016  1  -1.173893  0  -0.334268  -0.570319  0  2.280443  0
O  O192  1  0.90650838  0.84621860  0.26511000  1  -1.146693  0  -0.323154  -0.526187  0  2.060169  0
O  O193  1  0.59347113  0.65377646  0.26510566  1  -1.146679  0  -0.32314  -0.526134  0  2.060094  0
O  O194  1  0.34621258  0.40652932  0.23489546  1  -1.146571  0  -0.323103  -0.526135  0  2.059778  0
O  O195  1  0.15377960  0.09348638  0.23488922  1  -1.146391  0  -0.323136  -0.526123  0  2.060317  0
O  O196  1  0.09348534  0.15378773  0.73489328  1  -1.146155  0  -0.32312  -0.526152  0  2.059853  0
O  O197  1  0.40651934  0.34622462  0.73489348  1  -1.146994  0  -0.323143  -0.526262  0  2.060046  0
O  O198  1  0.65379874  0.59347982  0.76510406  1  -1.146337  0  -0.323143  -0.526174  0  2.059565  0
O  O199  1  0.84620719  0.90652790  0.76510277  1  -1.146314  0  -0.323154  -0.526327  0  2.059259  0
O  O200  1  0.75995350  0.62276646  0.88719312  1  -1.149687  0  -0.31595  -0.540982  0  2.297967  0
O  O201  1  0.74006951  0.87721861  0.88719529  1  -1.149968  0  -0.315869  -0.540695  0  2.298411  0
O  O202  1  0.12277268  0.25993850  0.61280756  1  -1.149631  0  -0.31598  -0.540851  0  2.298008  0
O  O203  1  0.37722246  0.24006254  0.61280329  1  -1.149703  0  -0.315908  -0.540898  0  2.298113  0
O  O204  1  0.24007178  0.37722174  0.11280339  1  -1.149667  0  -0.315824  -0.540713  0  2.29856  0
O  O205  1  0.25993287  0.12277736  0.11280988  1  -1.149695  0  -0.316036  -0.540864  0  2.298213  0
O  O206  1  0.87723042  0.74006255  0.38719046  1  -1.149752  0  -0.316043  -0.540932  0  2.298173  0
O  O207  1  0.62278054  0.75994270  0.38719961  1  -1.149731  0  -0.315794  -0.540779  0  2.298414  0
O  O208  1  0.58120373  0.64306308  0.91560022  1  -1.180717  0  -0.325494  -0.561638  0  2.15221  0
O  O209  1  0.91880967  0.85691498  0.91560575  1  -1.179489  0  -0.325245  -0.561495  0  2.152424  0
O  O210  1  0.14307102  0.08119509  0.58439895  1  -1.180422  0  -0.325373  -0.56154  0  2.152061  0
O  O211  1  0.35691887  0.41880108  0.58438943  1  -1.180126  0  -0.325342  -0.561528  0  2.152443  0
O  O212  1  0.41881507  0.35691462  0.08439290  1  -1.179631  0  -0.3253  -0.561572  0  2.152331  0
O  O213  1  0.08119114  0.14307585  0.08439942  1  -1.180168  0  -0.32537  -0.561655  0  2.152147  0
O  O214  1  0.85693290  0.91880685  0.41559981  1  -1.180352  0  -0.325394  -0.561631  0  2.151974  0
O  O215  1  0.64307512  0.58119351  0.41560782  1  -1.180048  0  -0.325353  -0.561511  0  2.152293  0
