# generated using pymatgen
data_Ni3H26C30(N6O7)2
_symmetry_space_group_name_H-M   'P 1'
_cell_length_a   13.61095328
_cell_length_b   13.77074797
_cell_length_c   17.71009840
_cell_angle_alpha   110.41266167
_cell_angle_beta   90.00000833
_cell_angle_gamma   90.00002643
_symmetry_Int_Tables_number   1
_chemical_formula_structural   Ni3H26C30(N6O7)2
_chemical_formula_sum   'Ni6 H52 C60 N24 O28'
_cell_volume   3111.01148612
_cell_formula_units_Z   2
loop_
 _symmetry_equiv_pos_site_id
 _symmetry_equiv_pos_as_xyz
  1  'x, y, z'
loop_
 _atom_site_type_symbol
 _atom_site_label
 _atom_site_symmetry_multiplicity
 _atom_site_fract_x
 _atom_site_fract_y
 _atom_site_fract_z
 _atom_site_occupancy
 _atom_site_pbe_bader_charge
 _atom_site_pbe_bader_spin_density
 _atom_site_pbe_cm5_charge
 _atom_site_pbe_ddec_charge
 _atom_site_pbe_ddec_spin_density
 _atom_site_pbe_ddec_sum_bond_order
 _atom_site_pbe_magmom
Ni  Ni0  1  0.01350042  0.73925585  0.92567648  1  1.200306  1.565797  0.65703  0.799702  1.766316  2.541213  1.553
Ni  Ni1  1  0.51350052  0.26074292  0.57432337  1  1.200267  1.565793  0.657021  0.799682  1.766311  2.541183  1.553
Ni  Ni2  1  0.98649894  0.26074306  0.07432330  1  1.200313  1.565795  0.65702  0.799697  1.766313  2.541169  1.553
Ni  Ni3  1  0.48649883  0.73925754  0.42567627  1  1.200312  1.565797  0.657022  0.7997  1.766313  2.541161  1.553
Ni  Ni4  1  0.99999935  0.99999969  0.99999943  1  1.180955  1.563897  0.687075  0.685948  1.768609  2.703979  1.55
Ni  Ni5  1  0.50000053  0.99999954  0.49999979  1  1.180953  1.563897  0.687052  0.685916  1.768609  2.704031  1.55
H  H6  1  0.13784139  0.86247475  0.01220283  1  0.660434  0.000275  0.282841  0.375624  0.000639  0.97889  0.001
H  H7  1  0.13538390  0.86560181  0.91286156  1  0.653618  7.8e-05  0.284435  0.375349  0.000432  0.979959  0.0
H  H8  1  0.88379499  0.69044818  0.06925589  1  0.212485  0.000643  0.168292  0.148471  2.5e-05  0.93887  0.001
H  H9  1  0.85739772  0.02002843  0.16497581  1  0.234697  0.000746  0.146628  0.137669  0.000126  1.029018  0.001
H  H10  1  0.82632443  0.90852615  0.26526912  1  0.08018  0.00014  0.130953  0.116251  5.3e-05  0.939302  0.0
H  H11  1  0.81593864  0.77206135  0.21810459  1  0.100551  0.000344  0.140002  0.132765  0.000175  0.929204  0.0
H  H12  1  0.66086648  0.79422060  0.14928962  1  0.105567  0.000327  0.13364  0.118222  0.000157  0.937944  0.0
H  H13  1  0.67472373  0.93116439  0.18895170  1  0.082538  0.000164  0.130259  0.114047  6.2e-05  0.946378  0.0
H  H14  1  0.63842410  0.02835739  0.34685367  1  0.242621  0.000725  0.143691  0.133367  7.4e-05  1.038439  0.001
H  H15  1  0.60346931  0.70010353  0.25063147  1  0.223874  0.000773  0.162634  0.145808  0.000146  0.95189  0.0
H  H16  1  0.10078807  0.53725231  0.05041436  1  0.116273  0.000424  0.10613  0.118259  0.000285  1.006907  0.0
H  H17  1  0.28047646  0.53003765  0.24831622  1  0.124309  0.000269  0.106375  0.118333  0.00014  1.003055  0.0
H  H18  1  0.26403976  0.80775302  0.18910870  1  0.07976  4e-05  0.089757  0.089095  -2.5e-05  1.044026  0.0
H  H19  1  0.63784299  0.13752486  0.48779755  1  0.660289  0.000274  0.282833  0.375587  0.000639  0.978935  0.001
H  H20  1  0.63538541  0.13439779  0.58713910  1  0.653622  7.8e-05  0.284435  0.375341  0.000433  0.979962  0.0
H  H21  1  0.38379469  0.30955235  0.43074478  1  0.212459  0.000643  0.168291  0.148467  2.5e-05  0.938874  0.001
H  H22  1  0.35740065  0.97996979  0.33502195  1  0.234645  0.000746  0.146651  0.137667  0.000126  1.029055  0.001
H  H23  1  0.32632473  0.09147280  0.23472998  1  0.080149  0.00014  0.130953  0.116263  5.3e-05  0.939281  0.0
H  H24  1  0.31594121  0.22793761  0.28189394  1  0.100524  0.000344  0.139982  0.132784  0.000175  0.929194  0.0
H  H25  1  0.16086905  0.20578292  0.35071016  1  0.105551  0.000327  0.133644  0.118224  0.000157  0.937946  0.0
H  H26  1  0.17472403  0.06883833  0.31105011  1  0.082505  0.000164  0.130251  0.114039  6.2e-05  0.946348  0.0
H  H27  1  0.13842258  0.97164377  0.15314714  1  0.242647  0.000725  0.14367  0.133532  7.4e-05  1.038504  0.001
H  H28  1  0.10346823  0.29989684  0.24936855  1  0.223906  0.000773  0.162634  0.145874  0.000146  0.951848  0.0
H  H29  1  0.60078687  0.46274807  0.44958455  1  0.11627  0.000424  0.106121  0.118252  0.000285  1.006891  0.0
H  H30  1  0.78047743  0.46996437  0.25168428  1  0.124342  0.000269  0.106386  0.118352  0.00014  1.003024  0.0
H  H31  1  0.76403840  0.19224901  0.31089068  1  0.079792  4e-05  0.089765  0.089114  -2.4e-05  1.044037  0.0
H  H32  1  0.86215870  0.13752416  0.98779694  1  0.660294  0.000274  0.282844  0.375614  0.000639  0.978897  0.001
H  H33  1  0.86461472  0.13439787  0.08713843  1  0.653553  7.9e-05  0.284455  0.375386  0.000432  0.979898  0.0
H  H34  1  0.11620510  0.30955148  0.93074579  1  0.212498  0.000643  0.168297  0.148502  2.5e-05  0.938884  0.001
H  H35  1  0.14260017  0.97997128  0.83502193  1  0.234665  0.000746  0.146641  0.137665  0.000126  1.029015  0.001
H  H36  1  0.17367566  0.09147508  0.73473074  1  0.080199  0.00014  0.130968  0.116273  5.3e-05  0.939297  0.0
H  H37  1  0.18406145  0.22793987  0.78189640  1  0.100535  0.000344  0.139992  0.132764  0.000175  0.929183  0.0
H  H38  1  0.33913361  0.20578141  0.85071045  1  0.105545  0.000327  0.133637  0.118227  0.000157  0.937946  0.0
H  H39  1  0.32527709  0.06883683  0.81104928  1  0.082475  0.000164  0.130262  0.114055  6.2e-05  0.946379  0.0
H  H40  1  0.36157746  0.97164229  0.65314632  1  0.242627  0.000725  0.143689  0.133527  7.4e-05  1.038477  0.001
H  H41  1  0.39653078  0.29989615  0.74936795  1  0.223874  0.000773  0.162652  0.145885  0.000146  0.951846  0.0
H  H42  1  0.89921201  0.46274737  0.94958507  1  0.116281  0.000424  0.106124  0.118269  0.000285  1.006891  0.0
H  H43  1  0.71952289  0.46996203  0.75168320  1  0.124639  0.000269  0.106381  0.11835  0.00014  1.00302  0.0
H  H44  1  0.73596033  0.19224821  0.81089172  1  0.079784  4e-05  0.089759  0.0891  -2.5e-05  1.044053  0.0
H  H45  1  0.36215931  0.86247403  0.51220279  1  0.66041  0.000275  0.282828  0.375575  0.000639  0.978948  0.001
H  H46  1  0.36461614  0.86560186  0.41286258  1  0.653564  7.8e-05  0.28444  0.37533  0.000432  0.979974  0.0
H  H47  1  0.61620467  0.69044810  0.56925543  1  0.212482  0.000643  0.168289  0.148463  2.5e-05  0.938877  0.001
H  H48  1  0.64260164  0.02002835  0.66497705  1  0.234673  0.000746  0.146644  0.137665  0.000126  1.029038  0.001
H  H49  1  0.67367610  0.90852610  0.76526980  1  0.080175  0.00014  0.130974  0.116286  5.4e-05  0.939263  0.0
H  H50  1  0.68406034  0.77206131  0.71810471  1  0.100535  0.000344  0.139993  0.132773  0.000175  0.929175  0.0
H  H51  1  0.83913251  0.79421909  0.64928992  1  0.105564  0.000327  0.133647  0.118224  0.000157  0.937935  0.0
H  H52  1  0.82527606  0.93116289  0.68895087  1  0.082559  0.000164  0.130269  0.114072  6.2e-05  0.946352  0.0
H  H53  1  0.86157677  0.02835669  0.84685306  1  0.242633  0.000725  0.143694  0.13353  7.4e-05  1.038482  0.001
H  H54  1  0.89653039  0.70010361  0.75063221  1  0.223917  0.000774  0.162656  0.145895  0.000147  0.951834  0.0
H  H55  1  0.39921395  0.53725239  0.55041510  1  0.116241  0.000424  0.106126  0.118264  0.000285  1.006861  0.0
H  H56  1  0.21952266  0.53003841  0.74831601  1  0.124347  0.000269  0.106378  0.118327  0.00014  1.003051  0.0
H  H57  1  0.23596022  0.80775148  0.68910671  1  0.07975  4e-05  0.089748  0.089086  -2.5e-05  1.044049  0.0
C  C58  1  0.88824657  0.77204010  0.07692996  1  0.965224  -0.00527  0.179698  0.096573  -0.006935  3.840194  -0.001
C  C59  1  0.87594770  0.94095211  0.12672703  1  0.933581  -0.001719  0.163197  0.07411  -0.003011  3.847396  0.001
C  C60  1  0.79984647  0.84660960  0.21113609  1  0.328469  0.001731  -0.030696  -0.086004  0.001076  3.869206  0.001
C  C61  1  0.68901441  0.85915112  0.20057426  1  0.317097  0.001676  -0.031767  -0.083731  0.001024  3.892463  0.001
C  C62  1  0.61683508  0.94891884  0.33877467  1  0.918024  -0.002312  0.15682  0.06633  -0.00357  3.853006  0.001
C  C63  1  0.59808102  0.78048868  0.28930457  1  0.996949  -0.004588  0.18119  0.123182  -0.006196  3.847755  -0.001
C  C64  1  0.18298294  0.67648618  0.11166307  1  -0.007436  0.007346  -0.030697  -0.053754  0.004254  4.022827  0.006
C  C65  1  0.15226134  0.57484187  0.09889873  1  -0.071449  -0.001662  -0.077232  -0.100053  -0.00208  3.926105  -0.001
C  C66  1  0.18649038  0.52227575  0.14850277  1  -0.035455  0.010817  -0.021395  -0.030222  0.006273  3.967544  0.008
C  C67  1  0.25216324  0.57176413  0.21083489  1  -0.027972  -0.000118  -0.072393  -0.090636  -0.000774  3.907052  0.0
C  C68  1  0.27839582  0.67535521  0.22703792  1  0.011311  0.008673  -0.027318  -0.0463  0.005132  4.009455  0.007
C  C69  1  0.24374799  0.72733175  0.17720404  1  -0.07216  0.000275  -0.089861  -0.117436  -0.000506  3.98314  0.001
C  C70  1  0.14841594  0.73141824  0.05705485  1  1.563955  0.000141  0.204029  0.566334  -0.000543  4.190115  0.0
C  C71  1  0.15103582  0.41414280  0.13853354  1  1.577511  -0.001276  0.189957  0.565674  -0.001892  4.251442  -0.002
C  C72  1  0.33885890  0.73192629  0.29975226  1  1.533295  -0.000618  0.206742  0.5767  -0.001414  4.17702  -0.001
C  C73  1  0.38824696  0.22795966  0.42306993  1  0.965224  -0.00527  0.179692  0.096549  -0.006935  3.840082  -0.001
C  C74  1  0.37595094  0.05904610  0.37327130  1  0.933838  -0.001719  0.163186  0.074143  -0.003011  3.847368  0.001
C  C75  1  0.29984681  0.15339013  0.28886209  1  0.328481  0.001731  -0.030679  -0.086062  0.001077  3.86913  0.001
C  C76  1  0.18901474  0.14085085  0.29942566  1  0.315054  0.001679  -0.031757  -0.083715  0.001024  3.892419  0.001
C  C77  1  0.11683461  0.05108230  0.16122614  1  0.91803  -0.002312  0.156827  0.066103  -0.00357  3.853223  0.001
C  C78  1  0.09808064  0.21951247  0.21069568  1  0.99688  -0.004587  0.181199  0.123111  -0.006196  3.847717  -0.001
C  C79  1  0.68298093  0.32351578  0.38833797  1  -0.007308  0.007346  -0.030754  -0.05386  0.004254  4.022862  0.006
C  C80  1  0.65226084  0.42516010  0.40110062  1  -0.071453  -0.001661  -0.077177  -0.099962  -0.002079  3.926152  -0.001
C  C81  1  0.68648990  0.47772392  0.35149482  1  -0.035455  0.010816  -0.021388  -0.030258  0.006273  3.967706  0.008
C  C82  1  0.75216567  0.42823634  0.28916462  1  -0.02805  -0.000118  -0.072446  -0.090708  -0.000774  3.907135  0.0
C  C83  1  0.77839452  0.32464369  0.27296285  1  0.01133  0.008674  -0.027286  -0.04619  0.005132  4.009448  0.007
C  C84  1  0.74374668  0.27267024  0.32279702  1  -0.072272  0.000275  -0.089879  -0.117497  -0.000506  3.983157  0.001
C  C85  1  0.64841538  0.26858215  0.44294575  1  1.563999  0.000141  0.204037  0.566287  -0.000543  4.190132  0.0
C  C86  1  0.65103466  0.58585684  0.36146516  1  1.577532  -0.001275  0.189907  0.565559  -0.001892  4.251263  -0.002
C  C87  1  0.83885830  0.26807422  0.20024727  1  1.532852  -0.000616  0.206788  0.576709  -0.001414  4.177044  -0.001
C  C88  1  0.11175425  0.22795956  0.92307116  1  0.966236  -0.005273  0.17966  0.096516  -0.006935  3.840202  -0.001
C  C89  1  0.12405092  0.05904681  0.87327162  1  0.933486  -0.001719  0.163193  0.074132  -0.003011  3.847364  0.001
C  C90  1  0.20015435  0.15339163  0.78886433  1  0.328454  0.001731  -0.030691  -0.086001  0.001076  3.869213  0.001
C  C91  1  0.31098567  0.14085010  0.79942616  1  0.317189  0.001676  -0.031784  -0.083783  0.001024  3.892512  0.001
C  C92  1  0.38316574  0.05108084  0.66122532  1  0.918017  -0.002312  0.156812  0.066069  -0.00357  3.85325  0.001
C  C93  1  0.40191907  0.21951178  0.71069564  1  0.996934  -0.004587  0.181199  0.12313  -0.006196  3.847676  -0.001
C  C94  1  0.81701641  0.32351503  0.88833903  1  -0.007333  0.007346  -0.030729  -0.053737  0.004254  4.022827  0.006
C  C95  1  0.84773875  0.42515704  0.90110105  1  -0.071472  -0.001662  -0.077255  -0.100093  -0.00208  3.926161  -0.001
C  C96  1  0.81350824  0.47772316  0.85149645  1  -0.035426  0.010817  -0.021384  -0.030249  0.006273  3.967558  0.008
C  C97  1  0.74783538  0.42823478  0.78916489  1  -0.028335  -0.000118  -0.072413  -0.090674  -0.000775  3.907113  0.0
C  C98  1  0.72160501  0.32464446  0.77296207  1  0.011296  0.008673  -0.027285  -0.046185  0.005132  4.009463  0.007
C  C99  1  0.75625283  0.27266948  0.82279582  1  -0.072247  0.000275  -0.089855  -0.11749  -0.000506  3.98314  0.001
C  C100  1  0.85158415  0.26858143  0.94294570  1  1.563995  0.000141  0.204074  0.566356  -0.000543  4.190163  0.0
C  C101  1  0.84896500  0.58585612  0.86146511  1  1.577535  -0.001276  0.189924  0.565585  -0.001892  4.251315  -0.002
C  C102  1  0.66113971  0.26807260  0.70024864  1  1.533304  -0.000618  0.206712  0.576565  -0.001414  4.177143  -0.001
C  C103  1  0.61175313  0.77204002  0.57693006  1  0.965179  -0.00527  0.179692  0.096552  -0.006934  3.840137  -0.001
C  C104  1  0.62405209  0.94095202  0.62672826  1  0.933578  -0.001719  0.163235  0.074158  -0.00301  3.847343  0.001
C  C105  1  0.70015328  0.84660878  0.71113656  1  0.328457  0.001731  -0.030718  -0.086069  0.001076  3.869106  0.001
C  C106  1  0.81098461  0.85915038  0.70057420  1  0.31497  0.001679  -0.031782  -0.083745  0.001024  3.892432  0.001
C  C107  1  0.88316548  0.94891892  0.83877428  1  0.918014  -0.002312  0.156792  0.066101  -0.00357  3.853146  0.001
C  C108  1  0.90191872  0.78048798  0.78930509  1  0.996907  -0.004588  0.181212  0.123139  -0.006196  3.84775  -0.001
C  C109  1  0.31701769  0.67648547  0.61166076  1  -0.007366  0.007346  -0.030727  -0.053739  0.004254  4.022673  0.006
C  C110  1  0.34773777  0.57484115  0.59889811  1  -0.071284  -0.001662  -0.077203  -0.100021  -0.00208  3.926024  -0.001
C  C111  1  0.31350945  0.52227733  0.64850391  1  -0.035611  0.010817  -0.021416  -0.030295  0.006273  3.967608  0.008
C  C112  1  0.24783516  0.57176258  0.71083403  1  -0.028015  -0.000119  -0.072413  -0.09064  -0.000775  3.907097  0.0
C  C113  1  0.22160631  0.67535596  0.72703883  1  0.011213  0.008674  -0.027264  -0.046236  0.005132  4.009528  0.007
C  C114  1  0.25625341  0.72732943  0.67720354  1  -0.072166  0.000276  -0.089893  -0.117508  -0.000506  3.983184  0.001
C  C115  1  0.35158471  0.73141754  0.55705368  1  1.563987  0.00014  0.204029  0.566285  -0.000543  4.190263  0.0
C  C116  1  0.34896469  0.41414515  0.63853660  1  1.577522  -0.001276  0.190035  0.565747  -0.001892  4.251187  -0.002
C  C117  1  0.16113885  0.73192703  0.79975090  1  1.533386  -0.000618  0.206722  0.576663  -0.001414  4.177085  -0.001
N  N118  1  0.93010036  0.80968214  0.02598271  1  -0.711816  0.057856  -0.222421  -0.145057  0.033973  3.52229  0.053
N  N119  1  0.92273647  0.91550732  0.05720945  1  -0.718211  0.066063  -0.226759  -0.150371  0.039026  3.499884  0.059
N  N120  1  0.85359729  0.85246101  0.14165512  1  -1.249041  0.002158  -0.22946  0.010442  0.000745  3.772359  0.002
N  N121  1  0.63512400  0.86288831  0.27237096  1  -1.251936  0.002351  -0.232911  0.009761  0.000983  3.76461  0.002
N  N122  1  0.56957976  0.91979274  0.39239244  1  -0.722682  0.067454  -0.23127  -0.154379  0.039847  3.514261  0.061
N  N123  1  0.55829323  0.81425196  0.36142709  1  -0.720374  0.059796  -0.229541  -0.158741  0.034948  3.541165  0.055
N  N124  1  0.43010002  0.19031764  0.47401775  1  -0.711812  0.057855  -0.222403  -0.145071  0.033972  3.522255  0.053
N  N125  1  0.42273680  0.08449168  0.44279024  1  -0.718147  0.066063  -0.226778  -0.150427  0.039026  3.49985  0.059
N  N126  1  0.35359837  0.14753796  0.35834454  1  -1.249282  0.002157  -0.229448  0.010541  0.000745  3.772215  0.002
N  N127  1  0.13512358  0.13711285  0.22762929  1  -1.249829  0.002348  -0.232934  0.009774  0.000983  3.764601  0.002
N  N128  1  0.06957855  0.08020761  0.10760815  1  -0.722656  0.067452  -0.231282  -0.154433  0.039846  3.514316  0.061
N  N129  1  0.05829281  0.18574838  0.13857348  1  -0.720375  0.059796  -0.229537  -0.158702  0.034947  3.541208  0.055
N  N130  1  0.06989899  0.19031677  0.97401706  1  -0.711888  0.057855  -0.2224  -0.145049  0.033972  3.522213  0.053
N  N131  1  0.07726362  0.08449159  0.94278977  1  -0.718132  0.066063  -0.226763  -0.150357  0.039026  3.499788  0.059
N  N132  1  0.14640279  0.14753945  0.85834508  1  -1.249975  0.00216  -0.22944  0.010457  0.000745  3.772331  0.002
N  N133  1  0.36487682  0.13711137  0.72762903  1  -1.251917  0.002351  -0.232912  0.009826  0.000983  3.764579  0.002
N  N134  1  0.43042180  0.08020694  0.60760755  1  -0.722678  0.067454  -0.2313  -0.15441  0.039847  3.514385  0.061
N  N135  1  0.44170686  0.18574772  0.63857290  1  -0.720376  0.059798  -0.229536  -0.158721  0.034949  3.541201  0.055
N  N136  1  0.56990007  0.80968281  0.52598302  1  -0.711799  0.057856  -0.222393  -0.145067  0.033973  3.522247  0.053
N  N137  1  0.57726402  0.91550799  0.55721032  1  -0.718143  0.066063  -0.22675  -0.150345  0.039026  3.499792  0.059
N  N138  1  0.64640245  0.85246095  0.64165523  1  -1.249049  0.002158  -0.229516  0.010466  0.000745  3.772306  0.002
N  N139  1  0.86487577  0.86288760  0.77237092  1  -1.249797  0.002348  -0.232936  0.009719  0.000982  3.764634  0.002
N  N140  1  0.93042080  0.91979284  0.89239262  1  -0.722682  0.067455  -0.231264  -0.154405  0.039848  3.514299  0.061
N  N141  1  0.94170654  0.81425207  0.86142728  1  -0.720377  0.059795  -0.229545  -0.158693  0.034947  3.541177  0.055
O  O142  1  0.09885965  0.88089279  0.96750450  1  -1.267019  0.137039  -0.563334  -0.781409  0.077242  2.412766  0.122
O  O143  1  0.09770465  0.67951047  0.99621250  1  -1.141055  0.067136  -0.304731  -0.514519  0.036952  2.326857  0.062
O  O144  1  0.17166342  0.82777861  0.07576951  1  -1.204521  0.004008  -0.341382  -0.572637  0.001601  2.211706  0.003
O  O145  1  0.06952572  0.38920864  0.09907810  1  -1.133487  0.094409  -0.327419  -0.558419  0.051159  2.33737  0.087
O  O146  1  0.20069214  0.36079951  0.16943261  1  -1.189848  0.000118  -0.365006  -0.604565  -0.001269  2.104351  0.0
O  O147  1  0.39216743  0.67822380  0.32927709  1  -1.137531  0.073086  -0.30602  -0.51913  0.040286  2.294226  0.068
O  O148  1  0.33075884  0.83136841  0.32835209  1  -1.191058  0.00274  -0.346179  -0.587635  0.00076  2.206736  0.002
O  O149  1  0.59886115  0.11910603  0.53249537  1  -1.266939  0.137037  -0.563315  -0.781363  0.07724  2.41273  0.122
O  O150  1  0.59770477  0.32049068  0.50378689  1  -1.141115  0.067134  -0.304721  -0.514482  0.03695  2.326891  0.062
O  O151  1  0.67166428  0.17222104  0.42422864  1  -1.204491  0.004008  -0.341375  -0.572518  0.001601  2.21156  0.003
O  O152  1  0.56952458  0.61079250  0.40092101  1  -1.133511  0.094406  -0.32741  -0.55837  0.051158  2.33736  0.087
O  O153  1  0.70068880  0.63919943  0.33056195  1  -1.189896  0.000117  -0.364988  -0.604506  -0.00127  2.10418  0.0
O  O154  1  0.89216831  0.32177597  0.17072224  1  -1.137091  0.073082  -0.306071  -0.51918  0.040286  2.294225  0.068
O  O155  1  0.83075891  0.16863286  0.17164877  1  -1.191053  0.00274  -0.346199  -0.587656  0.00076  2.206824  0.002
O  O156  1  0.90114044  0.11910690  0.03249492  1  -1.266874  0.137037  -0.563352  -0.78142  0.077241  2.412738  0.122
O  O157  1  0.90229397  0.32049153  0.00378813  1  -1.141112  0.067138  -0.304758  -0.514518  0.036953  2.326837  0.062
O  O158  1  0.82833594  0.17222108  0.92422936  1  -1.204505  0.004008  -0.341362  -0.572618  0.001601  2.211684  0.003
O  O159  1  0.93047437  0.61079180  0.90092323  1  -1.133491  0.09441  -0.327407  -0.558373  0.051159  2.337365  0.087
O  O160  1  0.79930868  0.63919942  0.83056547  1  -1.189866  0.000117  -0.365005  -0.604531  -0.001269  2.104253  0.0
O  O161  1  0.60783119  0.32177510  0.67072268  1  -1.137512  0.073086  -0.306056  -0.519154  0.040287  2.294267  0.068
O  O162  1  0.66923831  0.16863124  0.67165015  1  -1.191101  0.00274  -0.346151  -0.587536  0.00076  2.206839  0.002
O  O163  1  0.40114188  0.88089209  0.46750532  1  -1.266969  0.137037  -0.563349  -0.781385  0.077241  2.412906  0.122
O  O164  1  0.40229605  0.67950823  0.49621232  1  -1.141146  0.067138  -0.30474  -0.514506  0.036953  2.326895  0.062
O  O165  1  0.32833655  0.82777787  0.57577058  1  -1.204476  0.004008  -0.341346  -0.572575  0.001601  2.211707  0.003
O  O166  1  0.43047330  0.38920796  0.59907864  1  -1.133403  0.094412  -0.327423  -0.558407  0.05116  2.337366  0.087
O  O167  1  0.29931203  0.36080255  0.66944038  1  -1.189896  0.000117  -0.365079  -0.604622  -0.001269  2.104204  0.0
O  O168  1  0.10783104  0.67822450  0.82927685  1  -1.137544  0.073084  -0.306039  -0.519145  0.040286  2.294251  0.068
O  O169  1  0.16923750  0.83136838  0.82835052  1  -1.19108  0.00274  -0.346166  -0.587598  0.00076  2.206785  0.002
