# generated using pymatgen
data_AlH5C8O9
_symmetry_space_group_name_H-M   'P 1'
_cell_length_a   6.68706730
_cell_length_b   10.24762475
_cell_length_c   18.47487585
_cell_angle_alpha   89.99979553
_cell_angle_beta   89.98216595
_cell_angle_gamma   90.00180576
_symmetry_Int_Tables_number   1
_chemical_formula_structural   AlH5C8O9
_chemical_formula_sum   'Al4 H20 C32 O36'
_cell_volume   1266.01955919
_cell_formula_units_Z   4
loop_
 _symmetry_equiv_pos_site_id
 _symmetry_equiv_pos_as_xyz
  1  'x, y, z'
loop_
 _atom_site_type_symbol
 _atom_site_label
 _atom_site_symmetry_multiplicity
 _atom_site_fract_x
 _atom_site_fract_y
 _atom_site_fract_z
 _atom_site_occupancy
 _atom_site_pbe_bader_charge
 _atom_site_pbe_bader_spin_density
 _atom_site_pbe_cm5_charge
 _atom_site_pbe_ddec_charge
 _atom_site_pbe_ddec_spin_density
 _atom_site_pbe_ddec_sum_bond_order
 _atom_site_pbe_magmom
Al  Al0  1  0.23817451  0.75589404  0.25006109  1  2.486943  0  0.405525  1.652097  0  2.568234  0
Al  Al1  1  0.76185958  0.24411556  0.75011019  1  2.488726  0  0.405805  1.652779  0  2.567142  0
Al  Al2  1  0.73812516  0.74412401  0.25006782  1  2.486636  0  0.405598  1.652003  0  2.567951  0
Al  Al3  1  0.26188051  0.25587680  0.75011808  1  2.489257  0  0.405799  1.652662  0  2.567124  0
H  H4  1  0.67164063  0.52534582  0.37432652  1  0.662544  0  0.317394  0.370492  0  0.937673  0
H  H5  1  0.32778486  0.47460131  0.62572032  1  0.662627  0  0.317414  0.370395  0  0.938964  0
H  H6  1  0.32833564  0.47468632  0.87419935  1  0.662474  0  0.317599  0.371118  0  0.937063  0
H  H7  1  0.67219347  0.52539942  0.12583928  1  0.661213  0  0.317236  0.370089  0  0.938784  0
H  H8  1  0.17226018  0.97470694  0.12584242  1  0.663439  0  0.317429  0.370267  0  0.9386  0
H  H9  1  0.82834669  0.02533392  0.87421678  1  0.663889  0  0.31747  0.370805  0  0.93755  0
H  H10  1  0.82774956  0.02533088  0.62571881  1  0.662601  0  0.317451  0.370372  0  0.939049  0
H  H11  1  0.17164303  0.97460746  0.37435618  1  0.662711  0  0.317388  0.370468  0  0.938219  0
H  H12  1  0.57954494  0.35736074  0.50303987  1  0.644809  0  0.329538  0.366213  0  0.892541  0
H  H13  1  0.42010485  0.64275229  0.49705837  1  0.646008  0  0.329835  0.366225  0  0.892698  0
H  H14  1  0.42043965  0.64263205  0.00285962  1  0.642627  0  0.329851  0.366639  0  0.892077  0
H  H15  1  0.57989804  0.35728973  0.99722991  1  0.644367  0  0.330103  0.366824  0  0.892257  0
H  H16  1  0.07997867  0.14279367  0.99724800  1  0.644518  0  0.330065  0.366733  0  0.892676  0
H  H17  1  0.92047713  0.85749406  0.00290539  1  0.642208  0  0.329809  0.366499  0  0.892578  0
H  H18  1  0.92004963  0.85717321  0.49708358  1  0.646146  0  0.329801  0.366316  0  0.892966  0
H  H19  1  0.07951641  0.14251532  0.50308341  1  0.645892  0  0.329588  0.366342  0  0.892668  0
H  H20  1  0.47069750  0.57572112  0.24910565  1  0.596974  0  0.362366  0.441396  0  0.832182  0
H  H21  1  0.52934038  0.42423192  0.74810324  1  0.597474  0  0.362433  0.441468  0  0.832637  0
H  H22  1  0.97069000  0.92428436  0.24906573  1  0.597047  0  0.362198  0.441205  0  0.832522  0
H  H23  1  0.02934042  0.07575359  0.74806846  1  0.597251  0  0.362305  0.441362  0  0.833025  0
C  C24  1  0.49423578  0.88829237  0.35600229  1  1.545361  0  0.271952  0.685897  0  4.043181  0
C  C25  1  0.50550223  0.11147033  0.64414304  1  1.540836  0  0.272451  0.686636  0  4.043122  0
C  C26  1  0.50563366  0.11172666  0.85601671  1  1.54673  0  0.27213  0.686352  0  4.042952  0
C  C27  1  0.49462773  0.88849568  0.14414265  1  1.541995  0  0.272324  0.687198  0  4.042955  0
C  C28  1  0.99463091  0.61159886  0.14409776  1  1.542615  0  0.272318  0.68718  0  4.042515  0
C  C29  1  0.00560060  0.38829560  0.85601343  1  1.545629  0  0.272304  0.686597  0  4.043436  0
C  C30  1  0.00548711  0.38845011  0.64410673  1  1.542117  0  0.272241  0.686645  0  4.042739  0
C  C31  1  0.99426885  0.61166975  0.35599637  1  1.544167  0  0.272209  0.68649  0  4.043603  0
C  C32  1  0.83331335  0.48452695  0.45557668  1  0.505752  0  0.059333  0.15669  0  4.118967  0
C  C33  1  0.16629156  0.51560656  0.54452536  1  0.504286  0  0.058602  0.156037  0  4.119467  0
C  C34  1  0.16666406  0.51544511  0.95549101  1  0.505336  0  0.059457  0.156647  0  4.118087  0
C  C35  1  0.83370803  0.48442398  0.04459905  1  0.504405  0  0.059288  0.156723  0  4.120061  0
C  C36  1  0.33379879  0.01568168  0.04465434  1  0.508616  0  0.059474  0.156954  0  4.119038  0
C  C37  1  0.66671981  0.98465972  0.95550663  1  0.503784  0  0.05939  0.155851  0  4.118539  0
C  C38  1  0.66624414  0.98427763  0.54458266  1  0.507417  0  0.058918  0.156346  0  4.118407  0
C  C39  1  0.33327105  0.01534357  0.45558813  1  0.504189  0  0.059349  0.156364  0  4.118868  0
C  C40  1  0.83467637  0.42589871  0.52415225  1  0.570937  0  0.069651  0.191107  0  4.069445  0
C  C41  1  0.16493452  0.57425237  0.47595791  1  0.578625  0  0.069948  0.191411  0  4.069488  0
C  C42  1  0.16534469  0.57412173  0.02405768  1  0.565446  0  0.06925  0.190954  0  4.068572  0
C  C43  1  0.83498552  0.42577956  0.97603781  1  0.571438  0  0.070263  0.191627  0  4.069961  0
C  C44  1  0.33498418  0.07433761  0.97608367  1  0.571244  0  0.069744  0.190753  0  4.06989  0
C  C45  1  0.66547609  0.92600574  0.02408054  1  0.566745  0  0.06905  0.190886  0  4.068451  0
C  C46  1  0.66496425  0.92565919  0.47601217  1  0.572435  0  0.070254  0.191386  0  4.068544  0
C  C47  1  0.33455692  0.07399225  0.52417539  1  0.571427  0  0.069754  0.191745  0  4.068062  0
C  C48  1  0.00125745  0.44288124  0.57035137  1  0.047044  0  -0.037854  -0.254484  0  4.002585  0
C  C49  1  0.99842972  0.55719177  0.42973929  1  0.043374  0  -0.037634  -0.254379  0  4.001484  0
C  C50  1  0.99882398  0.55715827  0.07033495  1  0.047608  0  -0.037883  -0.254594  0  4.001625  0
C  C51  1  0.00142548  0.44276546  0.92975025  1  0.043948  0  -0.037793  -0.254309  0  4.000694  0
C  C52  1  0.50143809  0.05732934  0.92978734  1  0.041931  0  -0.037379  -0.253149  0  3.999379  0
C  C53  1  0.49894442  0.94293497  0.07037959  1  0.045483  0  -0.037679  -0.25454  0  4.000847  0
C  C54  1  0.49842756  0.94267669  0.42978340  1  0.041686  0  -0.037712  -0.253778  0  3.999964  0
C  C55  1  0.50115344  0.05703624  0.57038089  1  0.046762  0  -0.038043  -0.254794  0  4.001462  0
O  O56  1  0.65792424  0.85851335  0.17441484  1  -1.254222  0  -0.229858  -0.580499  0  2.373183  0
O  O57  1  0.34238946  0.14191782  0.82581002  1  -1.256639  0  -0.229209  -0.578692  0  2.372453  0
O  O58  1  0.34223278  0.14129073  0.67453485  1  -1.256441  0  -0.230517  -0.581078  0  2.372822  0
O  O59  1  0.65753363  0.85829437  0.32571006  1  -1.254969  0  -0.229567  -0.57912  0  2.372644  0
O  O60  1  0.15752315  0.64167488  0.32567457  1  -1.253818  0  -0.229839  -0.579455  0  2.372552  0
O  O61  1  0.84222380  0.35866551  0.67451839  1  -1.255103  0  -0.230259  -0.580895  0  2.372422  0
O  O62  1  0.84238203  0.35809623  0.82579030  1  -1.256594  0  -0.229468  -0.578853  0  2.372532  0
O  O63  1  0.15791078  0.64153085  0.17439883  1  -1.254707  0  -0.229838  -0.580439  0  2.372672  0
O  O64  1  0.32132884  0.87657491  0.32481652  1  -1.252045  0  -0.239646  -0.616729  0  2.347362  0
O  O65  1  0.67855574  0.12336637  0.67523407  1  -1.250981  0  -0.240231  -0.617578  0  2.347067  0
O  O66  1  0.67847217  0.12334846  0.82472900  1  -1.251594  0  -0.239875  -0.617217  0  2.347772  0
O  O67  1  0.32163075  0.87667968  0.17531941  1  -1.251421  0  -0.240247  -0.618108  0  2.347577  0
O  O68  1  0.82165826  0.62335417  0.17530328  1  -1.251112  0  -0.240259  -0.617864  0  2.347363  0
O  O69  1  0.17844914  0.37667007  0.82473322  1  -1.251174  0  -0.239931  -0.617114  0  2.347678  0
O  O70  1  0.17851628  0.37662650  0.67521773  1  -1.251573  0  -0.240212  -0.617554  0  2.346859  0
O  O71  1  0.82137130  0.62337724  0.32482257  1  -1.251906  0  -0.239662  -0.616684  0  2.347538  0
O  O72  1  0.48481872  0.66969369  0.25005259  1  -1.397791  0  -0.445034  -0.988384  0  2.181151  0
O  O73  1  0.51516156  0.33031200  0.75005537  1  -1.398337  0  -0.445209  -0.988869  0  2.18168  0
O  O74  1  0.98485719  0.83031972  0.25006357  1  -1.397897  0  -0.445036  -0.988109  0  2.180876  0
O  O75  1  0.01517841  0.16967134  0.75006442  1  -1.398089  0  -0.445146  -0.988804  0  2.181762  0
O  O76  1  0.66447671  0.46311291  0.41583246  1  -1.174543  0  -0.362445  -0.460708  0  2.319859  0
O  O77  1  0.33513120  0.53695718  0.58426687  1  -1.176333  0  -0.362767  -0.461416  0  2.320199  0
O  O78  1  0.33549069  0.53689258  0.91570507  1  -1.175687  0  -0.362432  -0.461095  0  2.318799  0
O  O79  1  0.66487242  0.46308776  0.08437742  1  -1.174766  0  -0.362708  -0.461096  0  2.320124  0
O  O80  1  0.16492534  0.03705975  0.08441226  1  -1.17752  0  -0.363079  -0.461316  0  2.319225  0
O  O81  1  0.83558130  0.96315675  0.91572597  1  -1.175918  0  -0.362277  -0.460471  0  2.318957  0
O  O82  1  0.83515303  0.96295104  0.58430186  1  -1.176602  0  -0.36305  -0.461602  0  2.319683  0
O  O83  1  0.16440104  0.03680190  0.41586243  1  -1.173702  0  -0.362318  -0.46063  0  2.320406  0
O  O84  1  0.67537920  0.35035844  0.54306680  1  -1.137266  0  -0.339699  -0.411464  0  2.333585  0
O  O85  1  0.32417785  0.64979069  0.45707313  1  -1.139779  0  -0.339547  -0.410766  0  2.334464  0
O  O86  1  0.32468105  0.64966338  0.04292578  1  -1.128351  0  -0.339657  -0.411579  0  2.332602  0
O  O87  1  0.67574935  0.35020181  0.95720975  1  -1.130622  0  -0.339996  -0.411712  0  2.333617  0
O  O88  1  0.17575904  0.14992172  0.95721435  1  -1.130641  0  -0.339783  -0.411353  0  2.333809  0
O  O89  1  0.82477151  0.85047042  0.04297422  1  -1.128284  0  -0.339565  -0.411315  0  2.333482  0
O  O90  1  0.82415469  0.85006590  0.45709613  1  -1.133345  0  -0.339673  -0.411075  0  2.334456  0
O  O91  1  0.17530068  0.14952211  0.54311201  1  -1.137984  0  -0.339638  -0.41158  0  2.333698  0
