# generated using pymatgen
data_Zr6H26C57S10(ClO8)4
_symmetry_space_group_name_H-M   'P 1'
_cell_length_a   16.43771841
_cell_length_b   16.46676201
_cell_length_c   16.46588852
_cell_angle_alpha   61.91234943
_cell_angle_beta   60.05471296
_cell_angle_gamma   60.05332509
_symmetry_Int_Tables_number   1
_chemical_formula_structural   Zr6H26C57S10(ClO8)4
_chemical_formula_sum   'Zr6 H26 C57 S10 Cl4 O32'
_cell_volume   3197.20447366
_cell_formula_units_Z   1
loop_
 _symmetry_equiv_pos_site_id
 _symmetry_equiv_pos_as_xyz
  1  'x, y, z'
loop_
 _atom_site_type_symbol
 _atom_site_label
 _atom_site_symmetry_multiplicity
 _atom_site_fract_x
 _atom_site_fract_y
 _atom_site_fract_z
 _atom_site_occupancy
 _atom_site_pbe_bader_charge
 _atom_site_pbe_bader_spin_density
 _atom_site_pbe_cm5_charge
 _atom_site_pbe_ddec_charge
 _atom_site_pbe_ddec_spin_density
 _atom_site_pbe_ddec_sum_bond_order
 _atom_site_pbe_magmom
Zr  Zr0  1  0.88580422  0.90236601  0.60860503  1  2.635727  0  1.628304  2.375704  0  2.769141  0
Zr  Zr1  1  0.10054937  0.11112784  0.40038186  1  2.637362  0  1.62767  2.372615  0  2.766668  0
Zr  Zr2  1  0.10100972  0.90184464  0.60872566  1  2.635685  0  1.629027  2.371331  0  2.762981  0
Zr  Zr3  1  0.88640046  0.11009057  0.39975536  1  2.63657  0  1.625502  2.37592  0  2.760004  0
Zr  Zr4  1  0.10345647  0.89677399  0.39545275  1  2.633513  0  1.618798  2.372277  0  2.73383  0
Zr  Zr5  1  0.88431718  0.11545895  0.61381684  1  2.634637  0  1.621315  2.37574  0  2.730668  0
H  H6  1  0.08229876  0.75617460  0.57893487  1  0.625184  0  0.330634  0.421811  0  0.858843  0
H  H7  1  0.08137199  0.08065976  0.25463472  1  0.611903  0  0.329712  0.419193  0  0.863491  0
H  H8  1  0.07629683  0.09263441  0.59066226  1  0.594064  0  0.331526  0.424654  0  0.853183  0
H  H9  1  0.73799884  0.09255854  0.59026582  1  0.607234  0  0.331507  0.42541  0  0.854237  0
H  H10  1  0.11762397  0.61625026  0.36769825  1  0.108789  0  0.120272  0.145554  0  0.972421  0
H  H11  1  0.60109174  0.13509907  0.90336893  1  0.124298  0  0.120077  0.145513  0  0.972158  0
H  H12  1  0.85814385  0.12147998  0.13008739  1  0.144521  0  0.119162  0.144555  0  0.977469  0
H  H13  1  0.60921551  0.39125914  0.37642726  1  0.099915  0  0.118503  0.144835  0  0.975606  0
H  H14  1  0.89682771  0.63435079  0.79725035  1  0.14213  0  0.113663  0.137356  0  1.001887  0
H  H15  1  0.17280149  0.28695587  0.12147939  1  0.143085  0  0.112587  0.135621  0  1.004867  0
H  H16  1  0.60536627  0.87917793  0.62803609  1  0.122072  0  0.120488  0.145871  0  0.973606  0
H  H17  1  0.85325941  0.33400288  0.71051555  1  0.098917  0  0.099478  0.144633  0  0.987102  0
H  H18  1  0.78887201  0.46233579  0.69592572  1  0.038858  0  0.088002  0.125505  0  1.001547  0
H  H19  1  0.77751875  0.40255797  0.63725195  1  0.071124  0  0.095761  0.139907  0  1.006934  0
H  H20  1  0.32571783  0.85906269  0.11729658  1  0.069323  0  0.098554  0.142173  0  0.991849  0
H  H21  1  0.45705035  0.79659128  0.06936151  1  0.014697  0  0.089178  0.126687  0  0.999729  0
H  H22  1  0.39563480  0.79170816  0.19592430  1  0.100201  0  0.098539  0.144712  0  0.998455  0
H  H23  1  0.19906779  0.88054086  0.80434432  1  0.072536  0  0.096726  0.141287  0  1.003108  0
H  H24  1  0.20011903  0.82187651  0.92699919  1  0.019703  0  0.087865  0.12457  0  1.000288  0
H  H25  1  0.13381412  0.79813825  0.88631326  1  0.071741  0  0.092544  0.140057  0  1.013852  0
H  H26  1  0.33659893  0.62234321  0.70367904  1  0.081593  0  0.089697  0.133805  0  1.017554  0
H  H27  1  0.46478344  0.60906651  0.65900620  1  0.043836  0  0.087969  0.125233  0  0.999007  0
H  H28  1  0.37524480  0.72309170  0.61721002  1  0.096362  0  0.094897  0.142448  0  1.018735  0
H  H29  1  0.32202898  0.20443874  0.36204810  1  0.072947  0  0.099628  0.143955  0  0.987686  0
H  H30  1  0.45315138  0.17735398  0.29566961  1  0.025695  0  0.088357  0.125374  0  0.999486  0
H  H31  1  0.38576313  0.11999188  0.29479685  1  0.07963  0  0.095799  0.141164  0  1.011578  0
C  C32  1  0.99163582  0.73864900  0.49560853  1  1.572338  0  0.224218  0.644174  0  4.150323  0
C  C33  1  0.27246123  0.99823155  0.23710551  1  1.551398  0  0.22329  0.648144  0  4.148931  0
C  C34  1  0.98692087  0.28178226  0.50604530  1  1.554855  0  0.224518  0.649239  0  4.144821  0
C  C35  1  0.72348344  0.00787101  0.78000014  1  1.549767  0  0.226322  0.644255  0  4.149946  0
C  C36  1  0.99781832  0.73538124  0.76336837  1  1.571426  0  0.234602  0.648219  0  4.091857  0
C  C37  1  0.72445347  0.00202252  0.50130754  1  1.566688  0  0.225237  0.64282  0  4.156404  0
C  C38  1  0.99942021  0.26504384  0.23385298  1  1.567353  0  0.234075  0.64929  0  4.092502  0
C  C39  1  0.26950556  0.00351860  0.50087845  1  1.547121  0  0.223188  0.646435  0  4.15539  0
C  C40  1  0.27391410  0.73974733  0.49550879  1  1.549033  0  0.223471  0.647675  0  4.150007  0
C  C41  1  0.98934369  0.00540714  0.77976603  1  1.55298  0  0.224  0.65001  0  4.144517  0
C  C42  1  0.72519672  0.28255636  0.50213768  1  1.552573  0  0.225764  0.644928  0  4.148666  0
C  C43  1  0.99308599  0.99739557  0.23611952  1  1.586962  0  0.224994  0.643522  0  4.156061  0
C  C44  1  0.91692257  0.42752386  0.57048633  1  0.033232  0  -0.002376  0.148151  0  3.964911  0
C  C45  1  0.05506354  0.59646535  0.42996405  1  0.022007  0  -0.088608  -0.133732  0  3.969511  0
C  C46  1  0.98436159  0.37258842  0.50452490  1  -0.164823  0  -0.02801  -0.196734  0  3.924913  0
C  C47  1  0.98909814  0.65079794  0.49558378  1  -0.136664  0  -0.024762  -0.121282  0  3.97661  0
C  C48  1  0.02938158  0.51520662  0.45628931  1  -0.183715  0  -0.023716  -0.005854  0  4.099247  0
C  C49  1  0.94401247  0.50893574  0.54168432  1  -0.12079  0  -0.023351  -0.080222  0  4.04142  0
C  C50  1  0.41869039  0.92833920  0.09724890  1  0.047888  0  -0.002193  0.149705  0  3.965986  0
C  C51  1  0.58261363  0.07123954  0.92499762  1  0.050968  0  -0.089131  -0.135827  0  3.968629  0
C  C52  1  0.36300522  0.99643170  0.14990763  1  -0.147641  0  -0.028877  -0.199036  0  3.928071  0
C  C53  1  0.63702926  0.00469988  0.87156705  1  -0.15424  0  -0.023596  -0.118036  0  3.970407  0
C  C54  1  0.50299707  0.04419219  0.00739320  1  -0.183848  0  -0.023122  -0.00412  0  4.094163  0
C  C55  1  0.49839149  0.95707907  0.01570873  1  -0.176466  0  -0.023821  -0.08226  0  4.044215  0
C  C56  1  0.06236354  0.93745459  0.91439679  1  0.056927  0  -0.002128  0.148772  0  3.961616  0
C  C57  1  0.92225680  0.06270829  0.10165718  1  0.046842  0  -0.088691  -0.133066  0  3.965398  0
C  C58  1  0.99105002  0.00292803  0.86893431  1  -0.142686  0  -0.027832  -0.196861  0  3.922927  0
C  C59  1  0.99244019  0.99735651  0.14731702  1  -0.197227  0  -0.024552  -0.119859  0  3.97597  0
C  C60  1  0.94671540  0.04169815  0.01678127  1  -0.169785  0  -0.023257  -0.004382  0  4.094386  0
C  C61  1  0.03547272  0.96063902  0.99907317  1  -0.177173  0  -0.023966  -0.081009  0  4.044819  0
C  C62  1  0.41948876  0.60975444  0.55730769  1  0.051255  0  -0.001809  0.151506  0  3.960038  0
C  C63  1  0.58822465  0.42060758  0.43378004  1  0.081278  0  -0.089209  -0.134874  0  3.969318  0
C  C64  1  0.36585726  0.65395155  0.49414414  1  -0.128702  0  -0.027764  -0.196374  0  3.920178  0
C  C65  1  0.63950062  0.37474045  0.49849261  1  -0.16565  0  -0.023734  -0.120547  0  3.974568  0
C  C66  1  0.50795340  0.50627799  0.45434288  1  -0.206046  0  -0.023148  -0.003334  0  4.094509  0
C  C67  1  0.50003465  0.52486892  0.53383428  1  -0.190021  0  -0.023117  -0.081228  0  4.043756  0
C  C68  1  0.07457008  0.57483519  0.88290161  1  0.069538  0  0.025712  0.095554  0  3.963665  0
C  C69  1  0.94042667  0.59418960  0.84547414  1  0.05945  0  -0.090427  -0.15201  0  3.978545  0
C  C70  1  0.92821732  0.50957610  0.91787929  1  0.008332  0  0.012805  0.112767  0  4.02845  0
C  C71  1  0.98298777  0.45768941  0.98397434  1  0.074888  0  -0.002482  -0.011411  0  3.91656  0
C  C72  1  0.95541409  0.38945266  0.07898930  1  0.05829  0  0.025583  0.09785  0  3.962504  0
C  C73  1  0.11802257  0.33914460  0.08539202  1  -0.014411  0  -0.089873  -0.151579  0  3.976996  0
C  C74  1  0.14305394  0.40952857  0.99879660  1  0.049101  0  0.012217  0.112991  0  4.027636  0
C  C75  1  0.07017061  0.48119714  0.95255866  1  0.081773  0  -0.002699  -0.014123  0  3.918678  0
C  C76  1  0.00696023  0.63335840  0.83271295  1  0.042055  0  -0.017987  -0.081725  0  3.938413  0
C  C77  1  0.02093041  0.33367128  0.13147282  1  0.098508  0  -0.017556  -0.078899  0  3.93629  0
C  C78  1  0.41539871  0.06432445  0.42836685  1  0.096637  0  -0.001483  0.149392  0  3.965442  0
C  C79  1  0.58484591  0.93678265  0.56545777  1  0.043879  0  -0.089038  -0.136406  0  3.972378  0
C  C80  1  0.36095066  0.00199727  0.49709471  1  -0.146371  0  -0.028157  -0.196764  0  3.931319  0
C  C81  1  0.63779099  0.99984835  0.49864144  1  -0.159439  0  -0.023657  -0.117712  0  3.979372  0
C  C82  1  0.50388185  0.95930916  0.54047749  1  -0.184164  0  -0.023849  -0.004673  0  4.100266  0
C  C83  1  0.49687284  0.03890279  0.45466996  1  -0.185364  0  -0.023181  -0.081911  0  4.044745  0
C  C84  1  0.82932672  0.40580664  0.65833496  1  -0.085093  0  -0.233626  -0.395648  0  3.956228  0
C  C85  1  0.39868325  0.83897933  0.12091358  1  -0.039541  0  -0.233097  -0.396602  0  3.955622  0
C  C86  1  0.15398868  0.85507866  0.88138056  1  -0.03023  0  -0.235582  -0.394396  0  3.952291  0
C  C87  1  0.39818982  0.64314301  0.63837530  1  -0.077979  0  -0.238061  -0.398451  0  3.956733  0
C  C88  1  0.39328946  0.14586284  0.34034245  1  -0.051067  0  -0.23331  -0.395734  0  3.953011  0
S  S89  1  0.07760706  0.41980451  0.40989192  1  0.258735  0  0.07427  0.11269  0  2.76829  0
S  S90  1  0.89558884  0.60388750  0.58917072  1  0.246184  0  0.078987  0.119103  0  2.782889  0
S  S91  1  0.40754354  0.09238988  0.10112272  1  0.248371  0  0.077018  0.111598  0  2.798888  0
S  S92  1  0.59247526  0.90895426  0.92129010  1  0.241241  0  0.0809  0.122793  0  2.766991  0
S  S93  1  0.89471984  0.09077806  0.92796333  1  0.236008  0  0.073254  0.11092  0  2.756382  0
S  S94  1  0.08820439  0.91023536  0.08778614  1  0.237801  0  0.07875  0.116343  0  2.769627  0
S  S95  1  0.41448156  0.59419719  0.40732246  1  0.26902  0  0.072978  0.108275  0  2.764293  0
S  S96  1  0.59112092  0.43556521  0.58391682  1  0.236637  0  0.082301  0.121077  0  2.778685  0
S  S97  1  0.40889160  0.91435035  0.59025815  1  0.232037  0  0.077787  0.111367  0  2.790787  0
S  S98  1  0.59036192  0.08604527  0.40524889  1  0.242835  0  0.080422  0.121382  0  2.768011  0
Cl  Cl99  1  0.26760335  0.39979799  0.94485034  1  -0.188185  0  -0.018994  -0.095625  0  1.528847  0
Cl  Cl100  1  0.15456130  0.61944186  0.87418602  1  -0.167317  0  0.027276  -0.031465  0  1.698186  0
Cl  Cl101  1  0.85275666  0.46500530  0.91750749  1  -0.192323  0  -0.019709  -0.093525  0  1.526604  0
Cl  Cl102  1  0.83484028  0.38942184  0.13309693  1  -0.160753  0  0.011115  -0.038522  0  1.633839  0
O  O103  1  0.92248922  0.77500462  0.56576435  1  -1.184536  0  -0.363022  -0.624812  0  2.291973  0
O  O104  1  0.23454296  0.06954528  0.27221895  1  -1.184197  0  -0.364554  -0.628457  0  2.286094  0
O  O105  1  0.05820081  0.24407520  0.43731663  1  -1.180994  0  -0.364151  -0.626296  0  2.28044  0
O  O106  1  0.75884707  0.93948880  0.74202086  1  -1.179598  0  -0.36091  -0.62131  0  2.286016  0
O  O107  1  0.06303007  0.77192687  0.73531533  1  -1.168561  0  -0.346018  -0.61209  0  2.331851  0
O  O108  1  0.75863296  0.07050843  0.43470097  1  -1.174383  0  -0.360822  -0.621366  0  2.284742  0
O  O109  1  0.92630665  0.23579034  0.27152575  1  -1.164446  0  -0.349825  -0.613593  0  2.350775  0
O  O110  1  0.23311563  0.93743778  0.57083902  1  -1.177358  0  -0.362231  -0.627653  0  2.280138  0
O  O111  1  0.23810261  0.76983888  0.42854544  1  -1.180831  0  -0.360422  -0.626919  0  2.262129  0
O  O112  1  0.92040173  0.07592718  0.74617887  1  -1.17595  0  -0.358552  -0.624647  0  2.26191  0
O  O113  1  0.75703886  0.24816133  0.57286984  1  -1.175017  0  -0.357565  -0.621848  0  2.26803  0
O  O114  1  0.06470794  0.93018999  0.26752645  1  -1.183273  0  -0.360553  -0.625183  0  2.269053  0
O  O115  1  0.05833232  0.93661165  0.74135874  1  -1.17703  0  -0.358812  -0.606413  0  2.290059  0
O  O116  1  0.76000337  0.24355472  0.43484321  1  -1.174689  0  -0.360005  -0.612513  0  2.262946  0
O  O117  1  0.92278067  0.06585279  0.27376275  1  -1.186495  0  -0.358349  -0.609827  0  2.278006  0
O  O118  1  0.23473878  0.77702134  0.56519249  1  -1.179286  0  -0.357495  -0.604075  0  2.301745  0
O  O119  1  0.92271438  0.77780191  0.73503869  1  -1.17575  0  -0.357247  -0.610371  0  2.300411  0
O  O120  1  0.23202801  0.07136176  0.43519809  1  -1.178901  0  -0.354945  -0.602625  0  2.295681  0
O  O121  1  0.06114838  0.23805335  0.27487838  1  -1.174686  0  -0.3539  -0.608739  0  2.283338  0
O  O122  1  0.75777208  0.93649883  0.57041795  1  -1.183555  0  -0.358302  -0.611475  0  2.264546  0
O  O123  1  0.75549194  0.07847963  0.74487995  1  -1.171177  0  -0.357108  -0.612097  0  2.248696  0
O  O124  1  0.06239215  0.77058416  0.42796408  1  -1.18124  0  -0.35514  -0.611236  0  2.244789  0
O  O125  1  0.23691394  0.93046481  0.27068631  1  -1.173807  0  -0.352358  -0.60456  0  2.277467  0
O  O126  1  0.91952371  0.24588310  0.57589727  1  -1.175151  0  -0.353436  -0.605253  0  2.277672  0
O  O127  1  0.81053921  0.06829432  0.56592792  1  -1.235451  0  -0.692486  -1.068382  0  2.350389  0
O  O128  1  0.05256108  0.06794713  0.56656014  1  -1.221342  0  -0.693739  -1.070597  0  2.358394  0
O  O129  1  0.05561800  0.06138238  0.32570659  1  -1.241887  0  -0.694553  -1.066392  0  2.373174  0
O  O130  1  0.05565654  0.82724865  0.55956232  1  -1.256869  0  -0.695353  -1.069473  0  2.368125  0
O  O131  1  0.12833634  0.96119064  0.45924458  1  -1.197125  0  -0.789619  -1.1485  0  2.128063  0
O  O132  1  0.94985697  0.96062241  0.45901583  1  -1.199447  0  -0.789422  -1.147024  0  2.119874  0
O  O133  1  0.94831514  0.13737264  0.46329261  1  -1.197923  0  -0.790656  -1.148004  0  2.127754  0
O  O134  1  0.94843801  0.96518717  0.63549988  1  -1.199397  0  -0.791706  -1.148873  0  2.131429  0
