# generated using pymatgen
data_AlH5C8O7
_symmetry_space_group_name_H-M   'P 1'
_cell_length_a   6.77003039
_cell_length_b   13.65272772
_cell_length_c   16.31467167
_cell_angle_alpha   89.94155534
_cell_angle_beta   89.33024078
_cell_angle_gamma   89.27369010
_symmetry_Int_Tables_number   1
_chemical_formula_structural   AlH5C8O7
_chemical_formula_sum   'Al4 H20 C32 O28'
_cell_volume   1507.73026405
_cell_formula_units_Z   4
loop_
 _symmetry_equiv_pos_site_id
 _symmetry_equiv_pos_as_xyz
  1  'x, y, z'
loop_
 _atom_site_type_symbol
 _atom_site_label
 _atom_site_symmetry_multiplicity
 _atom_site_fract_x
 _atom_site_fract_y
 _atom_site_fract_z
 _atom_site_occupancy
 _atom_site_pbe_bader_charge
 _atom_site_pbe_bader_spin_density
 _atom_site_pbe_cm5_charge
 _atom_site_pbe_ddec_charge
 _atom_site_pbe_ddec_spin_density
 _atom_site_pbe_ddec_sum_bond_order
 _atom_site_pbe_magmom
Al  Al0  1  0.00956191  0.99766967  0.50090266  1  2.492972  0  0.411443  1.641813  0  2.566137  0
Al  Al1  1  0.50961447  0.00240980  0.49889649  1  2.504441  0  0.405769  1.655804  0  2.567698  0
Al  Al2  1  0.99040007  0.49759006  0.00110137  1  2.504345  0  0.405869  1.655834  0  2.567518  0
Al  Al3  1  0.49044491  0.50231884  0.99909160  1  2.493929  0  0.411289  1.642234  0  2.56566  0
H  H4  1  0.26367121  0.86877318  0.49951529  1  0.625996  0  0.359264  0.437419  0  0.840422  0
H  H5  1  0.76189432  0.13116645  0.50244118  1  0.625928  0  0.358879  0.437328  0  0.840215  0
H  H6  1  0.23635289  0.63121888  0.00049940  1  0.626036  0  0.359174  0.43737  0  0.840593  0
H  H7  1  0.73813657  0.36882389  0.99756866  1  0.625227  0  0.358865  0.437328  0  0.840112  0
H  H8  1  0.42809476  0.69655912  0.80840160  1  0.158292  0  0.111699  0.14046  0  1.037837  0
H  H9  1  0.07192130  0.80348649  0.69161713  1  0.15967  0  0.111742  0.140637  0  1.037053  0
H  H10  1  0.92969653  0.30091146  0.18928169  1  0.164244  0  0.111695  0.140287  0  1.036583  0
H  H11  1  0.57035035  0.19908683  0.31072958  1  0.164612  0  0.111621  0.140187  0  1.036373  0
H  H12  1  0.56735520  0.30290898  0.80971821  1  0.133926  0  0.111461  0.138939  0  1.038143  0
H  H13  1  0.93268183  0.19709380  0.69026157  1  0.133721  0  0.111487  0.138907  0  1.038314  0
H  H14  1  0.42682451  0.70109739  0.19292003  1  0.164286  0  0.111342  0.140495  0  1.035296  0
H  H15  1  0.07310853  0.79883779  0.30711208  1  0.164371  0  0.111343  0.140597  0  1.035221  0
H  H16  1  0.42656000  0.86184420  0.64208079  1  0.65046  0  0.312181  0.347277  0  0.983505  0
H  H17  1  0.07343266  0.63818903  0.85793311  1  0.650868  0  0.31212  0.347457  0  0.983312  0
H  H18  1  0.92505322  0.13553261  0.35552375  1  0.638175  0  0.312992  0.348555  0  0.981758  0
H  H19  1  0.57495251  0.36446435  0.14447291  1  0.638128  0  0.312903  0.348277  0  0.982101  0
H  H20  1  0.58207128  0.13692497  0.64459177  1  0.647402  0  0.31258  0.347063  0  0.985361  0
H  H21  1  0.91795535  0.36309250  0.85537823  1  0.647144  0  0.312566  0.34703  0  0.985286  0
H  H22  1  0.42694166  0.86744886  0.35737384  1  0.643192  0  0.313284  0.348107  0  0.983595  0
H  H23  1  0.07298832  0.63253324  0.14261903  1  0.642725  0  0.313179  0.34792  0  0.983786  0
C  C24  1  0.76469550  0.88351024  0.38665108  1  1.515443  0  0.270481  0.663469  0  4.046354  0
C  C25  1  0.76190021  0.88254441  0.61255636  1  1.482715  0  0.270571  0.663421  0  4.049942  0
C  C26  1  0.24914573  0.11645781  0.61320925  1  1.519605  0  0.27106  0.665059  0  4.047416  0
C  C27  1  0.25948160  0.11742913  0.38742836  1  1.483978  0  0.270844  0.663868  0  4.048072  0
C  C28  1  0.73526765  0.61645916  0.11336041  1  1.515771  0  0.270455  0.66343  0  4.045963  0
C  C29  1  0.73809781  0.61747255  0.88745968  1  1.483567  0  0.270459  0.662991  0  4.050895  0
C  C30  1  0.25089050  0.38354951  0.88677084  1  1.519874  0  0.271058  0.664771  0  4.047569  0
C  C31  1  0.24053841  0.38255327  0.11256489  1  1.48421  0  0.270715  0.663728  0  4.048906  0
C  C32  1  0.75380501  0.81509242  0.68319152  1  -0.02834  0  -0.027626  -0.167028  0  4.00241  0
C  C33  1  0.74612016  0.68494452  0.81683941  1  -0.029525  0  -0.027486  -0.166741  0  4.002386  0
C  C34  1  0.56978419  0.78458697  0.71719360  1  0.561352  0  0.085717  0.292757  0  4.059658  0
C  C35  1  0.93016901  0.71544476  0.78284584  1  0.561193  0  0.085854  0.292725  0  4.059385  0
C  C36  1  0.56927296  0.71982660  0.78324924  1  0.013672  0  -0.093429  -0.188002  0  3.93353  0
C  C37  1  0.93066843  0.78021029  0.71678410  1  0.011926  0  -0.093442  -0.188285  0  3.933209  0
C  C38  1  0.25264138  0.18495599  0.31682291  1  -0.031975  0  -0.027885  -0.168074  0  3.999874  0
C  C39  1  0.24733848  0.31504558  0.18317044  1  -0.031144  0  -0.027904  -0.168077  0  4.000144  0
C  C40  1  0.06951179  0.21387694  0.28144920  1  0.552891  0  0.086738  0.29432  0  4.058149  0
C  C41  1  0.43049014  0.28613188  0.21854347  1  0.551753  0  0.086794  0.294095  0  4.057956  0
C  C42  1  0.07019681  0.27866023  0.21540844  1  0.019665  0  -0.093933  -0.188446  0  3.932379  0
C  C43  1  0.42980816  0.22133686  0.28458975  1  0.019926  0  -0.093951  -0.188439  0  3.931805  0
C  C44  1  0.25142922  0.18434037  0.68351303  1  -0.051887  0  -0.028159  -0.170003  0  4.003044  0
C  C45  1  0.24859080  0.31566920  0.81646158  1  -0.051784  0  -0.028081  -0.169954  0  4.003384  0
C  C46  1  0.43267220  0.21462863  0.71848284  1  0.542872  0  0.086365  0.294074  0  4.056164  0
C  C47  1  0.06735372  0.28538605  0.78148746  1  0.543607  0  0.086426  0.294503  0  4.056025  0
C  C48  1  0.42789699  0.27994817  0.78409320  1  0.038944  0  -0.09356  -0.186556  0  3.93485  0
C  C49  1  0.07212441  0.22006286  0.71588753  1  0.038977  0  -0.093558  -0.186623  0  3.934753  0
C  C50  1  0.75549873  0.81570155  0.31639782  1  -0.008534  0  -0.027329  -0.165965  0  3.998096  0
C  C51  1  0.74447615  0.68427441  0.18361364  1  -0.007323  0  -0.027444  -0.166286  0  3.997911  0
C  C52  1  0.57074168  0.78772869  0.28292899  1  0.504844  0  0.085518  0.292376  0  4.054671  0
C  C53  1  0.92921972  0.71225096  0.21709231  1  0.503683  0  0.085547  0.292609  0  4.054283  0
C  C54  1  0.56876430  0.72236240  0.21740496  1  0.008109  0  -0.094115  -0.189861  0  3.936289  0
C  C55  1  0.93118702  0.77759897  0.28261515  1  0.010083  0  -0.094021  -0.190015  0  3.936482  0
O  O56  1  0.93014202  0.90794961  0.41587712  1  -1.254456  0  -0.231252  -0.578443  0  2.315717  0
O  O57  1  0.59468441  0.91190912  0.58272201  1  -1.262489  0  -0.240032  -0.616746  0  2.396828  0
O  O58  1  0.41973581  0.08825479  0.58397819  1  -1.264662  0  -0.23981  -0.62129  0  2.402575  0
O  O59  1  0.09208041  0.08706037  0.41635606  1  -1.255811  0  -0.237224  -0.613418  0  2.397011  0
O  O60  1  0.08563647  0.08943514  0.58400523  1  -1.25413  0  -0.230787  -0.579008  0  2.332528  0
O  O61  1  0.42593763  0.09280441  0.41703140  1  -1.263214  0  -0.233347  -0.587016  0  2.337396  0
O  O62  1  0.59623477  0.91438782  0.41587617  1  -1.25901  0  -0.239192  -0.620616  0  2.416748  0
O  O63  1  0.92884584  0.90804352  0.58374357  1  -1.262094  0  -0.230894  -0.583921  0  2.339469  0
O  O64  1  0.26286939  0.93976293  0.49961515  1  -1.429881  0  -0.448484  -0.991852  0  2.160346  0
O  O65  1  0.75922437  0.06027013  0.50020287  1  -1.43021  0  -0.448145  -0.991741  0  2.160629  0
O  O66  1  0.90374463  0.58559399  0.08412240  1  -1.259729  0  -0.239254  -0.620679  0  2.416838  0
O  O67  1  0.57116408  0.59196974  0.91626999  1  -1.262977  0  -0.230833  -0.58382  0  2.339459  0
O  O68  1  0.41441145  0.41057947  0.91597666  1  -1.254512  0  -0.230791  -0.578966  0  2.332323  0
O  O69  1  0.07409413  0.40717795  0.08296672  1  -1.263227  0  -0.233244  -0.586819  0  2.337384  0
O  O70  1  0.08029892  0.41174961  0.91600619  1  -1.264093  0  -0.239815  -0.621264  0  2.402323  0
O  O71  1  0.40793412  0.41290667  0.08362066  1  -1.256746  0  -0.237129  -0.613483  0  2.397418  0
O  O72  1  0.56980641  0.59201617  0.08413441  1  -1.254496  0  -0.230995  -0.578335  0  2.315529  0
O  O73  1  0.90530052  0.58810349  0.91728365  1  -1.262508  0  -0.240084  -0.616458  0  2.397106  0
O  O74  1  0.23714287  0.56023283  0.00039712  1  -1.429857  0  -0.448393  -0.991939  0  2.160398  0
O  O75  1  0.74078300  0.43972761  0.99979048  1  -1.429425  0  -0.448145  -0.99185  0  2.160573  0
O  O76  1  0.39362838  0.81629388  0.68787480  1  -1.16663  0  -0.348887  -0.436331  0  2.312014  0
O  O77  1  0.10640396  0.68375094  0.81214206  1  -1.166367  0  -0.348813  -0.436509  0  2.31109  0
O  O78  1  0.89323903  0.18064740  0.30934846  1  -1.154982  0  -0.348504  -0.436081  0  2.312837  0
O  O79  1  0.60678280  0.31935463  0.19065428  1  -1.154598  0  -0.348439  -0.435703  0  2.312888  0
O  O80  1  0.61128044  0.18215870  0.69067453  1  -1.157109  0  -0.349064  -0.436091  0  2.314819  0
O  O81  1  0.88874765  0.31786683  0.80928872  1  -1.157307  0  -0.349147  -0.436254  0  2.314696  0
O  O82  1  0.39446995  0.82203109  0.31187864  1  -1.159  0  -0.34841  -0.43634  0  2.309325  0
O  O83  1  0.10547923  0.67794802  0.18811786  1  -1.158721  0  -0.348316  -0.43619  0  2.309113  0
