# generated using pymatgen
data_NiH10C17N3O4
_symmetry_space_group_name_H-M   'P 1'
_cell_length_a   11.65102477
_cell_length_b   14.77792621
_cell_length_c   14.77796771
_cell_angle_alpha   96.54025178
_cell_angle_beta   107.62151190
_cell_angle_gamma   107.62162030
_symmetry_Int_Tables_number   1
_chemical_formula_structural   NiH10C17N3O4
_chemical_formula_sum   'Ni4 H40 C68 N12 O16'
_cell_volume   2251.30579621
_cell_formula_units_Z   4
loop_
 _symmetry_equiv_pos_site_id
 _symmetry_equiv_pos_as_xyz
  1  'x, y, z'
loop_
 _atom_site_type_symbol
 _atom_site_label
 _atom_site_symmetry_multiplicity
 _atom_site_fract_x
 _atom_site_fract_y
 _atom_site_fract_z
 _atom_site_occupancy
 _atom_site_pbe_bader_charge
 _atom_site_pbe_bader_spin_density
 _atom_site_pbe_cm5_charge
 _atom_site_pbe_ddec_charge
 _atom_site_pbe_ddec_spin_density
 _atom_site_pbe_ddec_sum_bond_order
 _atom_site_pbe_magmom
Ni  Ni0  1  0.61027403  0.69066816  0.93156427  1  1.155235  1.548401  0.65337  0.710491  1.777417  2.59645  1.532
Ni  Ni1  1  0.38972633  0.06843638  0.30933154  1  1.15514  1.548401  0.653364  0.71046  1.777419  2.596547  1.532
Ni  Ni2  1  0.38972578  0.30933141  0.06843548  1  1.155269  1.548402  0.653383  0.710526  1.777418  2.596385  1.532
Ni  Ni3  1  0.61027382  0.93156392  0.69066838  1  1.155234  1.548401  0.653363  0.71048  1.777419  2.596496  1.532
H  H4  1  0.43233496  0.77600054  0.99084633  1  0.091327  0.00227  0.123581  0.100279  0.000783  0.978354  0.001
H  H5  1  0.56766582  0.00915273  0.22399922  1  0.091258  0.002271  0.123586  0.100286  0.000783  0.978354  0.001
H  H6  1  0.56766519  0.22399976  0.00915224  1  0.091256  0.00227  0.12358  0.100254  0.000783  0.978423  0.001
H  H7  1  0.43233274  0.99084611  0.77600083  1  0.091347  0.00227  0.123575  0.100258  0.000783  0.978364  0.001
H  H8  1  0.20236459  0.71532608  0.97681678  1  0.075912  0.00107  0.109372  0.115636  0.000506  1.005587  0.0
H  H9  1  0.79763707  0.02318406  0.28467376  1  0.075905  0.00107  0.109368  0.115631  0.000506  1.005587  0.0
H  H10  1  0.79763646  0.28467422  0.02318268  1  0.075891  0.00107  0.109361  0.115621  0.000506  1.005589  0.0
H  H11  1  0.20236218  0.97681624  0.71532595  1  0.075887  0.00107  0.109374  0.11562  0.000506  1.005585  0.0
H  H12  1  0.16695864  0.43481379  0.82499751  1  0.116961  0.000964  0.110665  0.118483  0.000464  1.013028  0.001
H  H13  1  0.83304009  0.17500113  0.56518575  1  0.116989  0.000964  0.11068  0.118502  0.000464  1.012993  0.001
H  H14  1  0.83304027  0.56518578  0.17500203  1  0.116981  0.000964  0.11067  0.118489  0.000464  1.013002  0.001
H  H15  1  0.16695972  0.82499844  0.43481468  1  0.116989  0.000964  0.110676  0.118507  0.000464  1.013004  0.001
H  H16  1  0.40149823  0.50855542  0.84631780  1  0.122417  0.002165  0.122074  0.096843  0.000696  1.004799  0.002
H  H17  1  0.59850156  0.15368101  0.49144325  1  0.122357  0.002165  0.122057  0.096859  0.000696  1.004832  0.002
H  H18  1  0.59850123  0.49144343  0.15368111  1  0.122304  0.002166  0.122077  0.096894  0.000696  1.004764  0.002
H  H19  1  0.40149735  0.84631856  0.50855697  1  0.122435  0.002165  0.122067  0.09686  0.000696  1.004842  0.002
H  H20  1  0.00008947  0.66338587  0.93099843  1  0.113309  0.000652  0.112415  0.123933  0.000446  1.008758  0.0
H  H21  1  0.99991167  0.06900212  0.33661549  1  0.113327  0.000652  0.112407  0.123941  0.000446  1.008792  0.0
H  H22  1  0.99991033  0.33661370  0.06900065  1  0.11331  0.000652  0.112422  0.123939  0.000446  1.008744  0.0
H  H23  1  0.00008847  0.93099818  0.66338443  1  0.113331  0.000652  0.112421  0.123954  0.000446  1.008788  0.0
H  H24  1  0.66525490  0.40364167  0.83680264  1  0.07713  0.000615  0.108498  0.117156  0.000405  1.019991  0.0
H  H25  1  0.33474390  0.16319828  0.59635896  1  0.077139  0.000615  0.108512  0.117169  0.000405  1.020023  0.0
H  H26  1  0.33474525  0.59635863  0.16319796  1  0.077124  0.000615  0.108495  0.117156  0.000405  1.020017  0.0
H  H27  1  0.66525568  0.83680275  0.40364091  1  0.077129  0.000615  0.1085  0.117129  0.000405  1.020024  0.0
H  H28  1  0.52363835  0.09775668  0.62813266  1  0.104044  0.002339  0.118945  0.090025  0.000908  1.021612  0.001
H  H29  1  0.47636107  0.37186699  0.90224314  1  0.104055  0.002339  0.118949  0.090028  0.000908  1.02161  0.001
H  H30  1  0.47636180  0.90224362  0.37186794  1  0.104157  0.002339  0.118945  0.09001  0.000908  1.021618  0.001
H  H31  1  0.52363997  0.62813331  0.09775700  1  0.10407  0.002339  0.118954  0.090046  0.000908  1.0216  0.001
H  H32  1  0.60789046  0.27843310  0.68860636  1  0.096624  0.00118  0.112558  0.121773  0.000571  0.990896  0.0
H  H33  1  0.39210952  0.31139379  0.72156717  1  0.096702  0.001179  0.112564  0.121795  0.000571  0.990891  0.0
H  H34  1  0.39211058  0.72156720  0.31139377  1  0.09662  0.00118  0.11256  0.121769  0.000571  0.990898  0.0
H  H35  1  0.60789063  0.68860652  0.27843208  1  0.096713  0.001179  0.112557  0.121786  0.000571  0.990925  0.0
H  H36  1  0.95411121  0.25503891  0.88209444  1  0.113112  0.001025  0.110908  0.119315  0.000498  1.019346  0.0
H  H37  1  0.04588891  0.11790535  0.74496142  1  0.113098  0.001025  0.110906  0.119311  0.000498  1.01934  0.0
H  H38  1  0.04588894  0.74496138  0.11790616  1  0.113112  0.001025  0.110907  0.119311  0.000498  1.019353  0.0
H  H39  1  0.95411214  0.88209495  0.25503939  1  0.113184  0.001025  0.110909  0.11934  0.000498  1.019293  0.0
H  H40  1  0.85054700  0.07273752  0.81801073  1  0.142549  0.002216  0.127219  0.107815  0.000803  0.976849  0.001
H  H41  1  0.14945143  0.18198719  0.92726239  1  0.142521  0.002216  0.127201  0.10779  0.000803  0.976854  0.001
H  H42  1  0.14945224  0.92726278  0.18198830  1  0.142538  0.002216  0.127213  0.107798  0.000803  0.976847  0.001
H  H43  1  0.85054927  0.81801238  0.07273758  1  0.142518  0.002217  0.12723  0.107845  0.000803  0.976884  0.001
C  C44  1  0.36970041  0.70079329  0.95486643  1  0.468914  -0.007254  0.04651  0.081425  -0.007803  3.956695  -0.005
C  C45  1  0.63030010  0.04513364  0.29920703  1  0.468977  -0.007254  0.046492  0.081382  -0.007804  3.956738  -0.005
C  C46  1  0.63029939  0.29920628  0.04513197  1  0.468954  -0.007253  0.046535  0.081481  -0.007803  3.956616  -0.005
C  C47  1  0.36969915  0.95486666  0.70079335  1  0.468878  -0.007254  0.046577  0.081551  -0.007803  3.956634  -0.005
C  C48  1  0.24090836  0.66615127  0.94578372  1  0.006687  0.006685  -0.081481  -0.166856  0.003685  3.953527  0.005
C  C49  1  0.75909255  0.05421698  0.33384925  1  0.006697  0.006685  -0.08148  -0.166857  0.003685  3.953561  0.005
C  C50  1  0.75909144  0.33384830  0.05421536  1  0.006705  0.006685  -0.081475  -0.16687  0.003685  3.953467  0.005
C  C51  1  0.24090670  0.94578331  0.66615114  1  0.006628  0.006685  -0.081488  -0.166899  0.003685  3.953525  0.005
C  C52  1  0.16399937  0.56887535  0.89814380  1  -0.070189  -0.010039  0.012731  0.080705  -0.010576  3.964549  -0.006
C  C53  1  0.83600111  0.10185527  0.43112461  1  -0.070225  -0.01004  0.012711  0.08065  -0.010576  3.964554  -0.006
C  C54  1  0.83600167  0.43112495  0.10185566  1  -0.070173  -0.010039  0.012681  0.080634  -0.010575  3.964652  -0.006
C  C55  1  0.16399835  0.89814357  0.56887497  1  -0.070153  -0.01004  0.012704  0.08072  -0.010576  3.964561  -0.006
C  C56  1  0.22295233  0.51077077  0.86193804  1  0.06998  0.00694  -0.074862  -0.14445  0.003919  3.917909  0.006
C  C57  1  0.77704512  0.13805984  0.48922757  1  0.069829  0.00694  -0.074867  -0.144442  0.003919  3.917879  0.006
C  C58  1  0.77704623  0.48922807  0.13806066  1  0.0698  0.006941  -0.074837  -0.144417  0.003919  3.917928  0.006
C  C59  1  0.22295345  0.86193900  0.51077248  1  0.069988  0.006939  -0.074872  -0.144513  0.003918  3.917955  0.006
C  C60  1  0.35198936  0.55075074  0.87365209  1  0.422831  -0.006252  0.054035  0.103544  -0.006635  3.916088  -0.004
C  C61  1  0.64800936  0.12634706  0.44924929  1  0.42304  -0.006253  0.054079  0.103553  -0.006635  3.916146  -0.004
C  C62  1  0.64800920  0.44924810  0.12634661  1  0.423138  -0.006252  0.054016  0.103465  -0.006635  3.916169  -0.004
C  C63  1  0.35198989  0.87365324  0.55075177  1  0.422832  -0.006252  0.05406  0.103577  -0.006635  3.916185  -0.004
C  C64  1  0.02565317  0.52703490  0.88441586  1  0.571772  0.001443  0.120189  0.197369  0.000513  4.01869  0.002
C  C65  1  0.97434767  0.11558504  0.47296648  1  0.571796  0.001442  0.120236  0.197463  0.000512  4.018642  0.002
C  C66  1  0.97434732  0.47296612  0.11558423  1  0.571778  0.001443  0.120251  0.197467  0.000513  4.018675  0.002
C  C67  1  0.02565158  0.88441525  0.52703391  1  0.571744  0.001442  0.120234  0.197423  0.000513  4.018682  0.002
C  C68  1  0.95616642  0.58464446  0.90410601  1  -0.103756  -0.003593  -0.070592  -0.167036  -0.003903  3.878704  -0.002
C  C69  1  0.04383439  0.09589330  0.41535555  1  -0.103749  -0.003593  -0.070567  -0.16702  -0.003903  3.878727  -0.002
C  C70  1  0.04383463  0.41535584  0.09589412  1  -0.103722  -0.003593  -0.070618  -0.167041  -0.003903  3.878664  -0.002
C  C71  1  0.95616507  0.90410554  0.58464404  1  -0.103721  -0.003593  -0.070626  -0.16706  -0.003903  3.878762  -0.002
C  C72  1  0.82544009  0.53985894  0.88793268  1  0.065821  0.00441  0.005454  0.036805  0.00275  3.955892  0.003
C  C73  1  0.17455999  0.11206784  0.46014177  1  0.065808  0.00441  0.005425  0.036747  0.00275  3.955866  0.003
C  C74  1  0.17456040  0.46014209  0.11206741  1  0.065823  0.00441  0.005451  0.036771  0.00275  3.955848  0.003
C  C75  1  0.82544016  0.88793246  0.53985883  1  0.065808  0.00441  0.005452  0.036748  0.00275  3.955843  0.003
C  C76  1  0.76706473  0.43964165  0.84957264  1  0.004362  -0.003493  -0.075163  -0.178876  -0.003789  3.909921  -0.002
C  C77  1  0.23293555  0.15042807  0.56035894  1  0.004346  -0.003494  -0.075171  -0.178869  -0.003789  3.909938  -0.002
C  C78  1  0.23293632  0.56035865  0.15042817  1  0.004432  -0.003493  -0.075188  -0.178889  -0.003789  3.909974  -0.002
C  C79  1  0.76706404  0.84957295  0.43964093  1  0.004277  -0.003494  -0.07515  -0.178802  -0.003789  3.909875  -0.002
C  C80  1  0.84308509  0.38756343  0.83129707  1  0.500037  0.001182  0.119055  0.196277  0.000388  4.045673  0.001
C  C81  1  0.15691498  0.16870357  0.61243671  1  0.499907  0.001182  0.119022  0.19622  0.000388  4.045695  0.001
C  C82  1  0.15691596  0.61243686  0.16870374  1  0.499924  0.001182  0.119046  0.19622  0.000388  4.045755  0.001
C  C83  1  0.84308516  0.83129673  0.38756321  1  0.500351  0.001182  0.119026  0.196229  0.000388  4.045742  0.001
C  C84  1  0.61712028  0.13506200  0.68627446  1  0.489615  -0.006373  0.045816  0.080596  -0.00693  3.967167  -0.004
C  C85  1  0.38287960  0.31372517  0.86493864  1  0.489625  -0.006373  0.045825  0.08063  -0.00693  3.967161  -0.004
C  C86  1  0.38288077  0.86493831  0.31372500  1  0.489491  -0.006373  0.045792  0.080602  -0.00693  3.96717  -0.004
C  C87  1  0.61712145  0.68627513  0.13506150  1  0.489624  -0.006372  0.045812  0.080579  -0.006929  3.967196  -0.004
C  C88  1  0.66458968  0.23562114  0.72030613  1  -0.044944  0.005692  -0.08421  -0.17644  0.003133  3.954612  0.004
C  C89  1  0.33540967  0.27969406  0.76437903  1  -0.044922  0.005692  -0.084228  -0.176488  0.003134  3.954589  0.004
C  C90  1  0.33541047  0.76437916  0.27969447  1  -0.044929  0.005692  -0.084207  -0.176438  0.003133  3.954623  0.004
C  C91  1  0.66459048  0.72030624  0.23562089  1  -0.044919  0.005692  -0.084217  -0.176451  0.003134  3.954638  0.004
C  C92  1  0.78736778  0.28098088  0.79239546  1  -0.020154  -0.009135  0.012788  0.084912  -0.009634  3.988075  -0.006
C  C93  1  0.21263096  0.20760315  0.71901929  1  -0.020217  -0.009134  0.01282  0.084936  -0.009633  3.987994  -0.006
C  C94  1  0.21263202  0.71901869  0.20760362  1  -0.020159  -0.009135  0.012828  0.08496  -0.009635  3.988062  -0.006
C  C95  1  0.78736863  0.79239787  0.28098126  1  -0.020484  -0.009134  0.012817  0.084896  -0.009633  3.98801  -0.006
C  C96  1  0.85746326  0.22213967  0.82717253  1  -0.017179  0.006032  -0.078774  -0.165874  0.003353  3.941047  0.005
C  C97  1  0.14253543  0.17282676  0.77786009  1  -0.017188  0.006033  -0.078773  -0.165845  0.003354  3.941009  0.005
C  C98  1  0.14253655  0.77785990  0.17282722  1  -0.017157  0.006032  -0.078772  -0.165869  0.003354  3.94104  0.005
C  C99  1  0.85746472  0.82717354  0.22213983  1  -0.017269  0.006033  -0.078774  -0.165844  0.003354  3.940961  0.005
C  C100  1  0.80164882  0.12194983  0.79157998  1  0.447715  -0.006146  0.052137  0.100573  -0.006581  3.92219  -0.004
C  C101  1  0.19835056  0.20841884  0.87805048  1  0.447899  -0.006148  0.052149  0.100575  -0.006581  3.92224  -0.004
C  C102  1  0.19835133  0.87805047  0.20841994  1  0.447682  -0.006147  0.052157  0.100618  -0.006582  3.922141  -0.004
C  C103  1  0.80164924  0.79158073  0.12194927  1  0.447902  -0.006148  0.052128  0.10051  -0.006581  3.922301  -0.004
C  C104  1  0.74881390  0.59833510  0.91093115  1  1.544331  -0.004324  0.197599  0.553721  -0.005528  4.188012  -0.006
C  C105  1  0.25118465  0.08906867  0.40166522  1  1.544315  -0.004324  0.19766  0.553825  -0.005529  4.187778  -0.006
C  C106  1  0.25118715  0.40166520  0.08906899  1  1.568211  -0.004275  0.197615  0.553736  -0.005528  4.187969  -0.006
C  C107  1  0.74881516  0.91093090  0.59833521  1  1.544314  -0.004324  0.197675  0.553873  -0.005529  4.187733  -0.006
C  C108  1  0.57537511  0.76529534  0.76529926  1  1.58404  -0.001672  0.198281  0.464883  -0.001864  4.208281  -0.002
C  C109  1  0.42462628  0.23470569  0.23470105  1  1.584282  -0.001675  0.198243  0.464861  -0.001863  4.20827  -0.002
C  C110  1  0.61690310  0.85238902  0.85239049  1  1.559387  -0.003555  0.202208  0.472124  -0.003948  4.187465  -0.004
C  C111  1  0.38309670  0.14761055  0.14760927  1  1.559425  -0.003555  0.202131  0.471903  -0.003947  4.187669  -0.004
N  N112  1  0.42488735  0.64409398  0.91964625  1  -1.220788  0.077315  -0.333268  -0.224989  0.045031  3.637419  0.069
N  N113  1  0.57511468  0.08035352  0.35590550  1  -1.220701  0.077315  -0.333288  -0.224975  0.045032  3.637451  0.069
N  N114  1  0.57511335  0.35590559  0.08035236  1  -1.220822  0.077315  -0.333263  -0.224963  0.045031  3.637397  0.069
N  N115  1  0.42488547  0.91964678  0.64409510  1  -1.22079  0.077314  -0.333329  -0.225086  0.045031  3.637464  0.069
N  N116  1  0.96965053  0.42986835  0.84996190  1  -1.194721  -0.004701  -0.302372  -0.324718  -0.004989  3.28886  -0.004
N  N117  1  0.03034846  0.15003948  0.57013234  1  -1.194659  -0.004701  -0.302404  -0.324774  -0.004989  3.288875  -0.004
N  N118  1  0.03034962  0.57013195  0.15003870  1  -1.194728  -0.004701  -0.302414  -0.324752  -0.004989  3.288906  -0.004
N  N119  1  0.96965079  0.84996081  0.42986805  1  -1.194754  -0.004701  -0.302396  -0.324754  -0.004989  3.288927  -0.004
N  N120  1  0.68347028  0.07878850  0.72209796  1  -1.211221  0.069414  -0.329211  -0.219128  0.040756  3.609065  0.062
N  N121  1  0.31652812  0.27790099  0.92121222  1  -1.21143  0.069422  -0.329191  -0.219127  0.040759  3.609132  0.062
N  N122  1  0.31653021  0.92121253  0.27790281  1  -1.211188  0.069414  -0.329209  -0.219139  0.040756  3.609034  0.062
N  N123  1  0.68347203  0.72209930  0.07878838  1  -1.211445  0.069421  -0.32921  -0.21912  0.040759  3.609127  0.062
O  O124  1  0.63463830  0.55345913  0.90813577  1  -1.134842  0.080856  -0.313124  -0.532193  0.045492  2.197704  0.072
O  O125  1  0.36536124  0.09186496  0.44653858  1  -1.1348  0.080855  -0.313171  -0.532231  0.045492  2.197592  0.072
O  O126  1  0.36536275  0.44654117  0.09186437  1  -1.13486  0.080856  -0.313129  -0.53221  0.045492  2.197755  0.072
O  O127  1  0.63463766  0.90813461  0.55346164  1  -1.134802  0.080856  -0.313204  -0.532272  0.045493  2.197558  0.072
O  O128  1  0.79862191  0.69088754  0.93197840  1  -1.111065  0.07189  -0.311035  -0.524076  0.040651  2.161836  0.064
O  O129  1  0.20137774  0.06802170  0.30911277  1  -1.111064  0.07189  -0.31104  -0.524102  0.040652  2.161823  0.064
O  O130  1  0.20137880  0.30911203  0.06802225  1  -1.134921  0.071843  -0.311046  -0.524086  0.040652  2.161809  0.064
O  O131  1  0.79862241  0.93197860  0.69088715  1  -1.111065  0.07189  -0.311033  -0.524121  0.040651  2.161811  0.064
O  O132  1  0.55896963  0.68173764  0.78404601  1  -1.118211  0.083492  -0.310436  -0.480812  0.047421  2.302249  0.075
O  O133  1  0.44102838  0.21595409  0.31826350  1  -1.11799  0.083514  -0.310453  -0.480849  0.047431  2.301819  0.075
O  O134  1  0.44103017  0.31826193  0.21595307  1  -1.118244  0.083489  -0.310439  -0.480792  0.047419  2.30218  0.075
O  O135  1  0.55897356  0.78404622  0.68173617  1  -1.117747  0.083512  -0.310475  -0.480865  0.047432  2.301792  0.075
O  O136  1  0.63161197  0.83413965  0.93620435  1  -1.125549  0.085661  -0.311631  -0.500698  0.048675  2.32909  0.078
O  O137  1  0.36838870  0.06379420  0.16586165  1  -1.125533  0.085669  -0.311608  -0.500637  0.048679  2.328851  0.078
O  O138  1  0.36838784  0.16585992  0.06379541  1  -1.125558  0.085661  -0.311534  -0.500555  0.048674  2.329154  0.078
O  O139  1  0.63161111  0.93620538  0.83413810  1  -1.125519  0.085667  -0.311582  -0.500682  0.048678  2.328798  0.078
