# generated using pymatgen
data_AlH13C16O6F
_symmetry_space_group_name_H-M   'P 1'
_cell_length_a   6.66333094
_cell_length_b   19.48206034
_cell_length_c   19.99970280
_cell_angle_alpha   98.89774338
_cell_angle_beta   90.00079327
_cell_angle_gamma   89.99961267
_symmetry_Int_Tables_number   1
_chemical_formula_structural   AlH13C16O6F
_chemical_formula_sum   'Al4 H52 C64 O24 F4'
_cell_volume   2565.02610824
_cell_formula_units_Z   4
loop_
 _symmetry_equiv_pos_site_id
 _symmetry_equiv_pos_as_xyz
  1  'x, y, z'
loop_
 _atom_site_type_symbol
 _atom_site_label
 _atom_site_symmetry_multiplicity
 _atom_site_fract_x
 _atom_site_fract_y
 _atom_site_fract_z
 _atom_site_occupancy
 _atom_site_pbe_bader_charge
 _atom_site_pbe_bader_spin_density
 _atom_site_pbe_cm5_charge
 _atom_site_pbe_ddec_charge
 _atom_site_pbe_ddec_spin_density
 _atom_site_pbe_ddec_sum_bond_order
 _atom_site_pbe_magmom
Al  Al0  1  0.22681269  0.25053838  0.24750289  1  2.501779  0  0.398379  1.639454  0  2.580203  0
Al  Al1  1  0.76420116  0.75021906  0.75079283  1  2.499512  0  0.396654  1.639868  0  2.579905  0
Al  Al2  1  0.72681798  0.24946804  0.25250320  1  2.501773  0  0.398417  1.639263  0  2.580532  0
Al  Al3  1  0.26419745  0.74978591  0.74921231  1  2.499585  0  0.396718  1.639748  0  2.580232  0
H  H4  1  0.31822841  0.01213291  0.44635188  1  0.076024  0  0.109159  0.128811  0  1.006991  0
H  H5  1  0.69858730  0.93722720  0.50112590  1  0.089642  0  0.108975  0.12993  0  1.003024  0
H  H6  1  0.81820423  0.48788336  0.05366930  1  0.075965  0  0.109071  0.128749  0  1.00698  0
H  H7  1  0.19854213  0.56273543  0.99883079  1  0.090451  0  0.10894  0.129943  0  1.00312  0
H  H8  1  0.68200091  0.13062487  0.40522150  1  0.138701  0  0.109214  0.11579  0  1.012712  0
H  H9  1  0.31626202  0.90326327  0.63037551  1  0.138826  0  0.113196  0.120977  0  0.994826  0
H  H10  1  0.18198991  0.36936890  0.09476868  1  0.13855  0  0.109164  0.11574  0  1.012681  0
H  H11  1  0.81628420  0.59674536  0.86963745  1  0.13882  0  0.113167  0.120874  0  0.994994  0
H  H12  1  0.68705947  0.04832116  0.48813099  1  0.057207  0  0.099732  0.099588  0  1.019732  0
H  H13  1  0.31611846  0.99073758  0.55219912  1  0.043491  0  0.099557  0.100056  0  1.013926  0
H  H14  1  0.18706592  0.45166035  0.01184654  1  0.057647  0  0.099758  0.099793  0  1.019651  0
H  H15  1  0.81614412  0.50927958  0.94782246  1  0.043382  0  0.099578  0.099901  0  1.014144  0
H  H16  1  0.72901459  0.16351908  0.04413648  1  0.055887  0  0.107555  0.112777  0  0.984489  0
H  H17  1  0.24293826  0.83686655  0.95577127  1  0.108923  0  0.108719  0.115718  0  0.982872  0
H  H18  1  0.22901329  0.33648568  0.45587215  1  0.055965  0  0.107588  0.112791  0  0.984322  0
H  H19  1  0.74293807  0.66313845  0.54423377  1  0.108992  0  0.108677  0.11568  0  0.982903  0
H  H20  1  0.26442904  0.92282808  0.06121327  1  0.101053  0  0.105511  0.108417  0  1.015247  0
H  H21  1  0.69854037  0.07512106  0.94008548  1  0.089224  0  0.10343  0.106907  0  1.014469  0
H  H22  1  0.76443047  0.57717147  0.43879617  1  0.101372  0  0.105488  0.108308  0  1.015246  0
H  H23  1  0.19852833  0.42488573  0.55991971  1  0.089236  0  0.103414  0.106819  0  1.014518  0
H  H24  1  0.43710930  0.09723012  0.14612175  1  0.09118  0  0.10219  0.080719  0  0.999229  0
H  H25  1  0.45867613  0.01873731  0.08697326  1  0.027643  0  0.092652  0.053851  0  1.001869  0
H  H26  1  0.41732456  0.02832472  0.24115608  1  0.004616  0  0.085317  0.077267  0  0.998425  0
H  H27  1  0.42688461  0.95011322  0.18355292  1  0.033104  0  0.08808  0.076384  0  0.979363  0
H  H28  1  0.77738695  0.98006019  0.14805777  1  0.02652  0  0.083067  0.113492  0  1.015904  0
H  H29  1  0.76590807  0.97791616  0.23627346  1  0.019191  0  0.08255  0.109579  0  1.004918  0
H  H30  1  0.76785391  0.05867592  0.20569217  1  0.027243  0  0.085206  0.118674  0  1.031217  0
H  H31  1  0.77301634  0.94519093  0.75947102  1  0.063277  0  0.105197  0.078809  0  0.968396  0
H  H32  1  0.01870360  0.94978203  0.79473722  1  0.046356  0  0.101422  0.063763  0  0.993884  0
H  H33  1  0.73508206  0.07307879  0.79083266  1  0.029284  0  0.090737  0.083577  0  0.972904  0
H  H34  1  0.96737664  0.07855938  0.83397917  1  0.027315  0  0.092086  0.086538  0  0.977986  0
H  H35  1  0.15009130  0.03970531  0.72454927  1  0.028542  0  0.083486  0.109025  0  1.007107  0
H  H36  1  0.00293731  0.11438206  0.71835824  1  0.031652  0  0.086978  0.114147  0  1.000707  0
H  H37  1  0.91979258  0.03102895  0.67975422  1  0.035801  0  0.079354  0.105491  0  1.028447  0
H  H38  1  0.93713083  0.40277722  0.35389335  1  0.091319  0  0.102145  0.080594  0  0.999219  0
H  H39  1  0.95867457  0.48126483  0.41305154  1  0.027886  0  0.092626  0.053771  0  1.002037  0
H  H40  1  0.91737979  0.47168507  0.25886450  1  0.005258  0  0.085501  0.077535  0  0.998311  0
H  H41  1  0.92684996  0.54989590  0.31647090  1  0.032719  0  0.088095  0.076472  0  0.979285  0
H  H42  1  0.27734401  0.51997467  0.35200037  1  0.026432  0  0.082901  0.113183  0  1.015955  0
H  H43  1  0.26591843  0.52213862  0.26378720  1  0.018468  0  0.082505  0.109387  0  1.004915  0
H  H44  1  0.26792036  0.44136995  0.29435011  1  0.028359  0  0.08523  0.118654  0  1.030863  0
H  H45  1  0.27300409  0.55480236  0.74053513  1  0.06295  0  0.105177  0.078884  0  0.968252  0
H  H46  1  0.51869133  0.55022251  0.70527140  1  0.046249  0  0.101445  0.063779  0  0.993932  0
H  H47  1  0.23509722  0.42691506  0.70915596  1  0.029353  0  0.090738  0.08353  0  0.973003  0
H  H48  1  0.46740061  0.42144428  0.66601656  1  0.027231  0  0.092085  0.086501  0  0.977837  0
H  H49  1  0.65008742  0.46029240  0.77545620  1  0.028563  0  0.083434  0.108988  0  1.006895  0
H  H50  1  0.50294416  0.38561201  0.78163494  1  0.031615  0  0.086999  0.114198  0  1.000717  0
H  H51  1  0.41977853  0.46896108  0.82024229  1  0.035825  0  0.079399  0.105515  0  1.028484  0
H  H52  1  0.46937733  0.16651876  0.26916306  1  0.630723  0  0.348136  0.424227  0  0.869229  0
H  H53  1  0.51314202  0.83495093  0.78968413  1  0.603425  0  0.350931  0.429081  0  0.858105  0
H  H54  1  0.96937107  0.33348888  0.23084459  1  0.63086  0  0.348121  0.424206  0  0.869146  0
H  H55  1  0.01313835  0.66505611  0.71032397  1  0.603158  0  0.350984  0.429176  0  0.857948  0
C  C56  1  0.47398464  0.33780911  0.35000755  1  1.572842  0  0.268668  0.659811  0  4.094799  0
C  C57  1  0.51530044  0.66038220  0.65181542  1  1.567269  0  0.271718  0.66661  0  4.093636  0
C  C58  1  0.97397837  0.16219623  0.14999860  1  1.572885  0  0.268475  0.659571  0  4.094959  0
C  C59  1  0.01532161  0.83962384  0.84818964  1  1.567985  0  0.271477  0.66626  0  4.094011  0
C  C60  1  0.48263727  0.33028145  0.16877742  1  1.605256  0  0.272198  0.66498  0  4.094015  0
C  C61  1  0.51249772  0.67252780  0.83430376  1  1.60117  0  0.262441  0.641797  0  4.132141  0
C  C62  1  0.98264141  0.16972589  0.33123181  1  1.604977  0  0.272292  0.665236  0  4.093474  0
C  C63  1  0.01250251  0.82746809  0.66569216  1  1.601701  0  0.262414  0.641749  0  4.132149  0
C  C64  1  0.17693382  0.03844356  0.43992515  1  0.04348  0  -0.101049  -0.266673  0  3.978218  0
C  C65  1  0.83479910  0.93300702  0.53034822  1  0.016521  0  -0.103492  -0.273556  0  3.98289  0
C  C66  1  0.67691043  0.46156982  0.06009186  1  0.043972  0  -0.100916  -0.266622  0  3.978463  0
C  C67  1  0.33477065  0.56696744  0.96962376  1  0.016175  0  -0.103352  -0.273521  0  3.98297  0
C  C68  1  0.17109149  0.08589630  0.39496623  1  0.43438  0  0.113295  0.293896  0  4.026755  0
C  C69  1  0.83767895  0.88565218  0.57552591  1  0.414403  0  0.112946  0.290302  0  4.041125  0
C  C70  1  0.67107091  0.41411974  0.10505127  1  0.433978  0  0.113469  0.294025  0  4.026583  0
C  C71  1  0.33766569  0.61432397  0.92444711  1  0.414492  0  0.112951  0.290114  0  4.041239  0
C  C72  1  0.99412968  0.12001312  0.38069307  1  0.031504  0  -0.018754  -0.159545  0  3.960662  0
C  C73  1  0.00905073  0.87438592  0.61321051  1  0.017165  0  -0.020276  -0.156253  0  3.960453  0
C  C74  1  0.49410899  0.37999464  0.11931570  1  0.030626  0  -0.018824  -0.159628  0  3.960917  0
C  C75  1  0.50904905  0.62560263  0.88677779  1  0.017253  0  -0.020328  -0.156273  0  3.960654  0
C  C76  1  0.82066926  0.10458071  0.41544930  1  -0.061729  0  -0.075663  -0.055659  0  3.978837  0
C  C77  1  0.18167700  0.91236789  0.60205783  1  -0.10594  0  -0.071996  -0.056535  0  3.980536  0
C  C78  1  0.32066333  0.39541635  0.08454756  1  -0.061619  0  -0.075516  -0.055492  0  3.979193  0
C  C79  1  0.68168703  0.58763006  0.89794389  1  -0.105984  0  -0.071948  -0.056336  0  3.980451  0
C  C80  1  0.82392730  0.05776377  0.46113510  1  0.029159  0  -0.094183  -0.151559  0  3.984032  0
C  C81  1  0.18111132  0.96046104  0.55754705  1  0.031881  0  -0.094566  -0.153247  0  3.985737  0
C  C82  1  0.32392605  0.44222593  0.03885417  1  0.029007  0  -0.094303  -0.151919  0  3.984184  0
C  C83  1  0.68112415  0.53954023  0.94245619  1  0.032045  0  -0.094588  -0.153047  0  3.985737  0
C  C84  1  0.00231931  0.02327739  0.47395242  1  -0.07702  0  0.003817  0.109428  0  3.998283  0
C  C85  1  0.00667367  0.97211350  0.52118764  1  0.039468  0  -0.000501  0.101241  0  4.005184  0
C  C86  1  0.50231221  0.47672075  0.02604660  1  -0.076652  0  0.003691  0.109442  0  3.998282  0
C  C87  1  0.50666873  0.52787742  0.97880268  1  0.038941  0  -0.00046  0.101228  0  4.00527  0
C  C88  1  0.96193860  0.10813640  0.08862121  1  0.029223  0  -0.020396  -0.141637  0  3.981801  0
C  C89  1  0.02357194  0.89500563  0.90833547  1  -0.037943  0  -0.026265  -0.161416  0  4.003816  0
C  C90  1  0.46193436  0.39186667  0.41138994  1  0.029868  0  -0.020481  -0.141797  0  3.982061  0
C  C91  1  0.52357337  0.60499910  0.59167115  1  -0.038122  0  -0.026235  -0.16156  0  4.004004  0
C  C92  1  0.16828697  0.93244651  0.01963502  1  -0.053884  0  -0.096249  -0.13599  0  4.026375  0
C  C93  1  0.80414011  0.06811251  0.98000648  1  -0.055162  0  -0.099246  -0.141982  0  4.034652  0
C  C94  1  0.66828883  0.56755548  0.48037552  1  -0.053345  0  -0.096141  -0.135707  0  4.026169  0
C  C95  1  0.30413828  0.43189284  0.52000423  1  -0.055595  0  -0.099256  -0.142  0  4.034334  0
C  C96  1  0.15491738  0.88458135  0.96165350  1  -0.01955  0  -0.086746  -0.082094  0  4.019378  0
C  C97  1  0.82224455  0.11697782  0.03717313  1  0.011602  0  -0.086379  -0.087356  0  4.025621  0
C  C98  1  0.65491337  0.61542383  0.53835470  1  -0.020006  0  -0.086759  -0.082108  0  4.019202  0
C  C99  1  0.32224863  0.38302639  0.46283336  1  0.01147  0  -0.086413  -0.087326  0  4.025288  0
C  C100  1  0.90826863  0.95521724  0.91371439  1  0.510828  0  0.093733  0.196063  0  4.00914  0
C  C101  1  0.07483022  0.04761022  0.08383302  1  0.501361  0  0.096036  0.192265  0  4.023855  0
C  C102  1  0.40826665  0.54478867  0.58629239  1  0.510796  0  0.093707  0.196104  0  4.009249  0
C  C103  1  0.57483086  0.45238903  0.41617745  1  0.501667  0  0.096145  0.192408  0  4.024189  0
C  C104  1  0.92178742  0.00667042  0.97272579  1  0.030125  0  -0.011247  -0.002854  0  3.993894  0
C  C105  1  0.05652557  0.99509077  0.02581088  1  -0.041119  0  -0.010585  -0.008851  0  4.003602  0
C  C106  1  0.42178769  0.49333502  0.52728391  1  0.030113  0  -0.01116  -0.002691  0  3.993977  0
C  C107  1  0.55652689  0.50490979  0.47419866  1  -0.041221  0  -0.010753  -0.009125  0  4.00398  0
C  C108  1  0.40019719  0.04147952  0.13713202  1  0.390308  0  -0.067923  0.033372  0  3.854273  0
C  C109  1  0.48200765  0.00408808  0.19249767  1  0.03485  0  -0.170347  -0.124162  0  3.993877  0
C  C110  1  0.71080168  0.00527503  0.19585858  1  -0.073312  0  -0.248718  -0.351928  0  3.963214  0
C  C111  1  0.86936058  0.97440565  0.79855645  1  0.405262  0  -0.063587  0.038871  0  3.859904  0
C  C112  1  0.88672264  0.05050070  0.78999543  1  -0.03883  0  -0.169519  -0.138066  0  3.990007  0
C  C113  1  0.99538606  0.05939949  0.72458251  1  -0.077935  0  -0.245618  -0.349101  0  3.982669  0
C  C114  1  0.90020749  0.45852678  0.36288899  1  0.390477  0  -0.067715  0.033905  0  3.853916  0
C  C115  1  0.98201641  0.49592702  0.30752826  1  0.034357  0  -0.170546  -0.124718  0  3.994207  0
C  C116  1  0.21080296  0.49476158  0.30418595  1  -0.073778  0  -0.248612  -0.351376  0  3.962805  0
C  C117  1  0.36935477  0.52559531  0.70144762  1  0.405596  0  -0.063612  0.038765  0  3.859969  0
C  C118  1  0.38673139  0.44949863  0.71000096  1  -0.038877  0  -0.169513  -0.137958  0  3.989946  0
C  C119  1  0.49538420  0.44059563  0.77541484  1  -0.077863  0  -0.245627  -0.349177  0  3.982557  0
O  O120  1  0.64713074  0.31026698  0.19108928  1  -1.253508  0  -0.230747  -0.592033  0  2.393781  0
O  O121  1  0.34370914  0.68925140  0.81215165  1  -1.241269  0  -0.235145  -0.595468  0  2.400188  0
O  O122  1  0.14715170  0.18974439  0.30892102  1  -1.253266  0  -0.230828  -0.592292  0  2.393386  0
O  O123  1  0.84369553  0.81074533  0.68784470  1  -1.241507  0  -0.235113  -0.59541  0  2.399779  0
O  O124  1  0.30573662  0.31729459  0.32394878  1  -1.262025  0  -0.234306  -0.597211  0  2.362711  0
O  O125  1  0.68401212  0.68350827  0.67547980  1  -1.260681  0  -0.233742  -0.597196  0  2.34563  0
O  O126  1  0.80574154  0.18271593  0.17605513  1  -1.262143  0  -0.234255  -0.597075  0  2.362982  0
O  O127  1  0.18401325  0.81649719  0.82453055  1  -1.260357  0  -0.233582  -0.596879  0  2.345982  0
O  O128  1  0.30846665  0.31157246  0.18532640  1  -1.252462  0  -0.231205  -0.585738  0  2.319186  0
O  O129  1  0.68467829  0.68940502  0.81440460  1  -1.250255  0  -0.235875  -0.583401  0  2.328562  0
O  O130  1  0.80848324  0.18843165  0.31467599  1  -1.252502  0  -0.231195  -0.585753  0  2.319219  0
O  O131  1  0.18466023  0.81059726  0.68559867  1  -1.250274  0  -0.235928  -0.583354  0  2.329011  0
O  O132  1  0.14645555  0.18339908  0.17129192  1  -1.248853  0  -0.232699  -0.589147  0  2.349694  0
O  O133  1  0.84471583  0.81852189  0.82506511  1  -1.257446  0  -0.2295  -0.588815  0  2.345578  0
O  O134  1  0.64644170  0.31660692  0.32871685  1  -1.249486  0  -0.232793  -0.589234  0  2.350201  0
O  O135  1  0.34471786  0.68148661  0.67493431  1  -1.256664  0  -0.229592  -0.588854  0  2.345826  0
O  O136  1  0.47636246  0.20705084  0.24648661  1  -1.431769  0  -0.448425  -0.984395  0  2.1933  0
O  O137  1  0.51398516  0.79311218  0.75621288  1  -1.404963  0  -0.448068  -0.983424  0  2.180421  0
O  O138  1  0.97635944  0.29295663  0.25352006  1  -1.431853  0  -0.448454  -0.984443  0  2.193291  0
O  O139  1  0.01398356  0.70689544  0.74379572  1  -1.404625  0  -0.448118  -0.983451  0  2.180304  0
O  O140  1  0.18335980  0.03388454  0.13838785  1  -1.103439  0  -0.201506  -0.243565  0  2.557692  0
O  O141  1  0.77998177  0.96817263  0.86345615  1  -1.06858  0  -0.199305  -0.233211  0  2.519521  0
O  O142  1  0.68336389  0.46611705  0.36162613  1  -1.103457  0  -0.20152  -0.243602  0  2.557455  0
O  O143  1  0.27997163  0.53184076  0.63655058  1  -1.068584  0  -0.199335  -0.2332  0  2.519346  0
F  F144  1  0.34748000  0.09647411  0.36369331  1  -0.639694  0  -0.080505  -0.133699  0  1.391526  0
F  F145  1  0.66648425  0.84910656  0.58051148  1  -0.628068  0  -0.087772  -0.125504  0  1.360406  0
F  F146  1  0.84746092  0.40354776  0.13632801  1  -0.63958  0  -0.080576  -0.133701  0  1.391382  0
F  F147  1  0.16645506  0.65086209  0.91945368  1  -0.627775  0  -0.087861  -0.125444  0  1.360415  0
