# generated using pymatgen
data_Zn2H23C37N3O8
_symmetry_space_group_name_H-M   'P 1'
_cell_length_a   9.77376044
_cell_length_b   11.05568566
_cell_length_c   11.00466815
_cell_angle_alpha   89.68751312
_cell_angle_beta   89.31360530
_cell_angle_gamma   88.17279148
_symmetry_Int_Tables_number   1
_chemical_formula_structural   Zn2H23C37N3O8
_chemical_formula_sum   'Zn2 H23 C37 N3 O8'
_cell_volume   1188.41105871
_cell_formula_units_Z   1
loop_
 _symmetry_equiv_pos_site_id
 _symmetry_equiv_pos_as_xyz
  1  'x, y, z'
loop_
 _atom_site_type_symbol
 _atom_site_label
 _atom_site_symmetry_multiplicity
 _atom_site_fract_x
 _atom_site_fract_y
 _atom_site_fract_z
 _atom_site_occupancy
 _atom_site_pbe_bader_charge
 _atom_site_pbe_bader_spin_density
 _atom_site_pbe_cm5_charge
 _atom_site_pbe_ddec_charge
 _atom_site_pbe_ddec_spin_density
 _atom_site_pbe_ddec_sum_bond_order
 _atom_site_pbe_magmom
Zn  Zn0  1  0.63958911  0.49000514  0.50602791  1  1.28674  0  0.672948  0.821296  0  2.418176  0
Zn  Zn1  1  0.35239683  0.49610134  0.49854580  1  1.289015  0  0.668766  0.820425  0  2.423399  0
H  H2  1  0.85928249  0.55956250  0.78228660  1  0.097863  0  0.108795  0.117644  0  1.009415  0
H  H3  1  0.15021641  0.39715397  0.21767570  1  0.096236  0  0.098329  0.10213  0  1.014542  0
H  H4  1  0.00672446  0.22411158  0.15711979  1  0.043145  0  0.098353  0.092136  0  0.995524  0
H  H5  1  0.76789648  0.26272885  0.08988822  1  0.060828  0  0.102007  0.104619  0  0.992717  0
H  H6  1  0.36985277  0.10092860  0.33636506  1  0.034205  0  0.09889  0.099916  0  1.001649  0
H  H7  1  0.36385149  0.87757502  0.35212074  1  0.054717  0  0.099283  0.103927  0  1.000994  0
H  H8  1  0.58725712  0.89063706  0.79008420  1  0.021406  0  0.093222  0.098281  0  0.988031  0
H  H9  1  0.74338199  0.88235863  0.70483448  1  0.059939  0  0.090438  0.095992  0  0.994796  0
H  H10  1  0.58424346  0.11689626  0.77618553  1  0.024414  0  0.094274  0.103815  0  0.977066  0
H  H11  1  0.74276383  0.11018744  0.69664800  1  0.098781  0  0.089967  0.107291  0  1.041614  0
H  H12  1  0.11737303  0.68046222  0.51219395  1  0.143247  0  0.132244  0.116716  0  0.979457  0
H  H13  1  0.98746069  0.74601601  0.82561746  1  0.086759  0  0.106034  0.102519  0  0.989851  0
H  H14  1  0.85862285  0.67992679  0.51259139  1  0.139021  0  0.133448  0.117109  0  0.976531  0
H  H15  1  0.87356144  0.21237031  0.55979937  1  0.122485  0  0.10838  0.138591  0  1.001255  0
H  H16  1  0.87763804  0.22597037  0.39740761  1  0.103808  0  0.107875  0.134191  0  0.980403  0
H  H17  1  0.13129073  0.21175610  0.56416885  1  0.108101  0  0.110972  0.138902  0  0.964993  0
H  H18  1  0.13773327  0.22260175  0.40269677  1  0.081716  0  0.106788  0.127898  0  0.985118  0
H  H19  1  0.22836722  0.72992322  0.89499507  1  0.072478  0  0.107273  0.107644  0  0.982647  0
H  H20  1  0.21641742  0.34176883  0.87915429  1  0.05112  0  0.113105  0.118232  0  0.977292  0
H  H21  1  0.29826774  0.55129660  0.12291083  1  0.102077  0  0.103195  0.10987  0  1.032638  0
H  H22  1  0.71114665  0.44132606  0.88306243  1  0.103562  0  0.1015  0.105417  0  1.052739  0
H  H23  1  0.81032595  0.64434523  0.14689837  1  0.051976  0  0.101559  0.102903  0  0.988931  0
H  H24  1  0.05074763  0.60675224  0.21075229  1  0.042809  0  0.09654  0.091018  0  1.003866  0
C  C25  1  0.49572587  0.25790413  0.48862066  1  1.548926  0  0.221093  0.605921  0  4.177592  0
C  C26  1  0.96521813  0.55366194  0.81230771  1  -0.040458  0  -0.081523  -0.126858  0  3.965562  0
C  C27  1  0.38973174  0.53073452  0.06845369  1  -0.064978  0  -0.085793  -0.150794  0  3.970762  0
C  C28  1  0.51291591  0.50977143  0.13006709  1  -0.059262  0  -0.009752  -0.056946  0  3.922695  0
C  C29  1  0.63320426  0.47911464  0.06331948  1  -0.045044  0  0.005187  0.059475  0  3.945407  0
C  C30  1  0.62145275  0.46794860  0.93725629  1  0.002298  0  -0.083829  -0.144472  0  3.954219  0
C  C31  1  0.49857053  0.48916028  0.87547105  1  -0.034023  0  -0.012841  -0.064067  0  3.933927  0
C  C32  1  0.37910581  0.52097088  0.94259765  1  0.008648  0  3.4e-05  0.049744  0  3.972324  0
C  C33  1  0.85335541  0.55218431  0.14958720  1  -0.033314  0  -0.087811  -0.115157  0  3.969585  0
C  C34  1  0.98816556  0.53081031  0.18612347  1  0.033306  0  -0.100411  -0.092404  0  4.044786  0
C  C35  1  0.04423502  0.41281313  0.18991426  1  -0.119555  0  -0.101622  -0.103881  0  4.031144  0
C  C36  1  0.50206109  0.48123628  0.73909043  1  1.603232  0  0.213248  0.590322  0  4.171645  0
C  C37  1  0.96398241  0.31656253  0.15601070  1  -0.040363  0  -0.098403  -0.088969  0  4.051752  0
C  C38  1  0.82927517  0.33802622  0.11824906  1  0.004866  0  -0.09069  -0.133035  0  3.972843  0
C  C39  1  0.77222904  0.45598557  0.11507922  1  -0.089821  0  -0.004456  0.08211  0  3.980228  0
C  C40  1  0.56299722  0.05790831  0.58561175  1  -0.002668  0  -0.012134  0.045975  0  3.898838  0
C  C41  1  0.49651825  0.12283049  0.49381042  1  0.003353  0  -0.013661  -0.061068  0  3.982946  0
C  C42  1  0.42414724  0.05415516  0.40987418  1  0.002367  0  -0.095595  -0.123132  0  4.024763  0
C  C43  1  0.42078049  0.92816094  0.41850782  1  -0.02359  0  -0.094951  -0.114311  0  4.018708  0
C  C44  1  0.49037329  0.86297292  0.51076283  1  -0.041723  0  -0.020355  -0.079254  0  3.998835  0
C  C45  1  0.56095555  0.93181476  0.59342148  1  -0.059864  0  -0.011534  0.049552  0  3.901033  0
C  C46  1  0.64158765  0.92731932  0.71073289  1  -0.007464  0  -0.151941  -0.189167  0  3.883371  0
C  C47  1  0.48768199  0.72835934  0.51582784  1  1.590594  0  0.216302  0.607378  0  4.172186  0
C  C48  1  0.64174905  0.07019462  0.70273339  1  -0.054339  0  -0.155007  -0.197945  0  3.862118  0
C  C49  1  0.07096258  0.39253735  0.49354264  1  0.46962  0  0.146696  0.191576  0  3.866594  0
C  C50  1  0.06267814  0.59628533  0.50666988  1  0.44101  0  0.061198  0.038902  0  3.88573  0
C  C51  1  0.92001291  0.59603505  0.50646084  1  0.48773  0  0.062099  0.039572  0  3.8866  0
C  C52  1  0.92798687  0.39253316  0.49261348  1  0.589931  0  0.14771  0.200816  0  3.865468  0
C  C53  1  0.92249005  0.25689257  0.48219457  1  -0.01446  0  -0.14453  -0.237804  0  3.824371  0
C  C54  1  0.08485917  0.25624925  0.48475840  1  -0.007214  0  -0.141519  -0.229058  0  3.835585  0
C  C55  1  0.50491347  0.51060781  0.26645085  1  1.615967  0  0.214836  0.594291  0  4.173343  0
C  C56  1  0.03761021  0.65712732  0.83667147  1  -0.029513  0  -0.087405  -0.078243  0  4.038329  0
C  C57  1  0.17297656  0.64810293  0.87622749  1  -0.046436  0  -0.076899  -0.111152  0  3.935326  0
C  C58  1  0.23924042  0.53479566  0.89098762  1  0.03168  0  0.006824  0.1027  0  3.989021  0
C  C59  1  0.16706756  0.43069495  0.86722894  1  0.049782  0  -0.066228  -0.136067  0  3.890435  0
C  C60  1  0.03096209  0.43969431  0.82829466  1  0.045145  0  0.00064  0.05369  0  4.109555  0
C  C61  1  0.96251824  0.33009636  0.80648027  1  0.840081  0  0.186399  0.241778  0  4.023528  0
N  N62  1  0.14178288  0.49289887  0.50078888  1  -1.210432  0  -0.290477  -0.186351  0  3.459095  0
N  N63  1  0.84939241  0.49233465  0.50013098  1  -1.227737  0  -0.290207  -0.182863  0  3.467412  0
N  N64  1  0.91258708  0.23728061  0.78868704  1  -1.168177  0  -0.307138  -0.376093  0  2.771094  0
O  O65  1  0.61073157  0.30801442  0.47962989  1  -1.1645  0  -0.308316  -0.533676  0  2.306744  0
O  O66  1  0.37883916  0.31153106  0.49621443  1  -1.164573  0  -0.310771  -0.541568  0  2.34321  0
O  O67  1  0.61895124  0.46063206  0.68953123  1  -1.165118  0  -0.316513  -0.538701  0  2.326636  0
O  O68  1  0.38980841  0.49784626  0.68312655  1  -1.168432  0  -0.308326  -0.544156  0  2.364771  0
O  O69  1  0.59942238  0.67220473  0.54236113  1  -1.16218  0  -0.318195  -0.554548  0  2.29856  0
O  O70  1  0.37433047  0.68002533  0.49189243  1  -1.164098  0  -0.32012  -0.55355  0  2.314308  0
O  O71  1  0.61431426  0.52609442  0.32487473  1  -1.171143  0  -0.309945  -0.541176  0  2.36183  0
O  O72  1  0.38702708  0.49359777  0.31304685  1  -1.164506  0  -0.317554  -0.545816  0  2.328104  0
