# generated using pymatgen
data_AlH36(C6O)6
_symmetry_space_group_name_H-M   'P 1'
_cell_length_a   3.94855176
_cell_length_b   29.07569257
_cell_length_c   29.07572012
_cell_angle_alpha   119.99867742
_cell_angle_beta   89.99891379
_cell_angle_gamma   90.01041904
_symmetry_Int_Tables_number   1
_chemical_formula_structural   AlH36(C6O)6
_chemical_formula_sum   'Al2 H72 C72 O12'
_cell_volume   2890.91148407
_cell_formula_units_Z   2
loop_
 _symmetry_equiv_pos_site_id
 _symmetry_equiv_pos_as_xyz
  1  'x, y, z'
loop_
 _atom_site_type_symbol
 _atom_site_label
 _atom_site_symmetry_multiplicity
 _atom_site_fract_x
 _atom_site_fract_y
 _atom_site_fract_z
 _atom_site_occupancy
 _atom_site_pbe_bader_charge
 _atom_site_pbe_bader_spin_density
 _atom_site_pbe_cm5_charge
 _atom_site_pbe_ddec_charge
 _atom_site_pbe_ddec_spin_density
 _atom_site_pbe_ddec_sum_bond_order
 _atom_site_pbe_magmom
Al  Al0  1  0.00005296  0.49999853  0.49999709  1  2.502733  0  0.424361  1.586801  0  2.573157  0
Al  Al1  1  0.99886623  0.16667172  0.83335196  1  2.50305  0  0.424356  1.584402  0  2.576078  0
H  H2  1  0.30795408  0.12952680  0.66234850  1  0.029686  0  0.091551  0.127608  0  1.006187  0
H  H3  1  0.66370676  0.13488455  0.70163820  1  0.051451  0  0.096967  0.137442  0  1.020673  0
H  H4  1  0.71854511  0.13640087  0.64192835  1  0.018764  0  0.087585  0.116858  0  1.018425  0
H  H5  1  0.69139645  0.33765079  0.87044742  1  0.026651  0  0.091636  0.12775  0  1.006264  0
H  H6  1  0.33541629  0.29843928  0.86514673  1  0.051144  0  0.096948  0.137189  0  1.020856  0
H  H7  1  0.28109090  0.35813452  0.86360691  1  0.018421  0  0.087635  0.116987  0  1.018514  0
H  H8  1  0.24002178  0.39731149  0.80831876  1  0.014985  0  0.090485  0.124592  0  1.011526  0
H  H9  1  0.57734859  0.39645650  0.76764349  1  0.035447  0  0.089246  0.124328  0  1.046268  0
H  H10  1  0.66353734  0.39675801  0.82780172  1  0.03868  0  0.088082  0.11811  0  1.015228  0
H  H11  1  0.75988562  0.19167139  0.60272455  1  0.013604  0  0.090614  0.124778  0  1.011256  0
H  H12  1  0.42277841  0.23233481  0.60354941  1  0.035873  0  0.08938  0.124611  0  1.046109  0
H  H13  1  0.33637412  0.17219360  0.60325538  1  0.039142  0  0.088179  0.118257  0  1.015254  0
H  H14  1  0.24430108  0.26911757  0.52486406  1  0.022851  0  0.09047  0.124591  0  1.011318  0
H  H15  1  0.58190539  0.27028074  0.56562351  1  0.040738  0  0.089266  0.124568  0  1.045749  0
H  H16  1  0.66767341  0.27013365  0.50554320  1  0.028491  0  0.088401  0.11849  0  1.015079  0
H  H17  1  0.75602056  0.47509959  0.73085360  1  0.022062  0  0.090431  0.124659  0  1.011355  0
H  H18  1  0.41838931  0.43435182  0.72970414  1  0.040377  0  0.089352  0.124708  0  1.045924  0
H  H19  1  0.33275838  0.49444724  0.72988312  1  0.029944  0  0.088267  0.118449  0  1.014935  0
H  H20  1  0.30691037  0.53708201  0.67091211  1  0.029532  0  0.091629  0.127651  0  1.006584  0
H  H21  1  0.66331500  0.53182233  0.63177377  1  0.051417  0  0.09712  0.137467  0  1.020377  0
H  H22  1  0.71716205  0.53028962  0.69150565  1  0.022633  0  0.087401  0.116713  0  1.01836  0
H  H23  1  0.69325659  0.32909245  0.46291942  1  0.029032  0  0.091572  0.127614  0  1.006464  0
H  H24  1  0.33690214  0.36820972  0.46816193  1  0.051619  0  0.097134  0.137442  0  1.020471  0
H  H25  1  0.28310433  0.30847628  0.46968549  1  0.023039  0  0.087429  0.116766  0  1.018197  0
H  H26  1  0.30769408  0.03278185  0.87043722  1  0.020483  0  0.091505  0.127679  0  1.006473  0
H  H27  1  0.66353605  0.06674095  0.86512203  1  0.050331  0  0.097026  0.137594  0  1.020621  0
H  H28  1  0.71825175  0.00550224  0.86360677  1  0.025582  0  0.087474  0.1169  0  1.018541  0
H  H29  1  0.69125147  0.03282119  0.66237247  1  0.023696  0  0.091515  0.127555  0  1.006584  0
H  H30  1  0.33529089  0.06671645  0.70156717  1  0.060222  0  0.097015  0.1373  0  1.02069  0
H  H31  1  0.28094312  0.00548427  0.64185980  1  0.037631  0  0.087572  0.116831  0  1.018614  0
H  H32  1  0.24005245  0.91101118  0.60265489  1  0.017744  0  0.090535  0.124688  0  1.011502  0
H  H33  1  0.57726839  0.87120978  0.60353659  1  0.019067  0  0.089353  0.124546  0  1.046217  0
H  H34  1  0.66357144  0.93107722  0.60326104  1  -0.012132  0  0.088162  0.118168  0  1.015218  0
H  H35  1  0.75973594  0.91102359  0.80829949  1  0.024985  0  0.090453  0.12457  0  1.011515  0
H  H36  1  0.42248815  0.87119112  0.76764199  1  0.061604  0  0.089366  0.124445  0  1.046514  0
H  H37  1  0.33628991  0.93102588  0.82778554  1  0.032962  0  0.088092  0.118149  0  1.015256  0
H  H38  1  0.24417555  0.75575249  0.73086353  1  0.023228  0  0.090434  0.124669  0  1.011354  0
H  H39  1  0.58196658  0.79533332  0.72971365  1  0.062565  0  0.089269  0.124604  0  1.045872  0
H  H40  1  0.66745311  0.73540471  0.72987896  1  0.02741  0  0.088339  0.118459  0  1.014974  0
H  H41  1  0.75608307  0.75576215  0.52490569  1  0.026372  0  0.090393  0.124634  0  1.011419  0
H  H42  1  0.41855673  0.79535228  0.56564294  1  0.0683  0  0.089355  0.124648  0  1.04627  0
H  H43  1  0.33280326  0.73543348  0.50555059  1  0.02691  0  0.088277  0.118505  0  1.014917  0
H  H44  1  0.30709435  0.63382264  0.46290683  1  0.017621  0  0.091575  0.127491  0  1.006653  0
H  H45  1  0.66350854  0.59996896  0.46818853  1  0.050935  0  0.097089  0.137441  0  1.020346  0
H  H46  1  0.71730858  0.66123592  0.46972518  1  0.019945  0  0.087654  0.116916  0  1.018456  0
H  H47  1  0.69324454  0.63382407  0.67091626  1  0.018609  0  0.091599  0.127598  0  1.006526  0
H  H48  1  0.33688571  0.59994196  0.63177473  1  0.061137  0  0.097028  0.137304  0  1.020545  0
H  H49  1  0.28307230  0.66118975  0.69149938  1  0.020088  0  0.087501  0.116742  0  1.018338  0
H  H50  1  0.30795247  0.33763822  0.96719114  1  0.02217  0  0.091594  0.127734  0  1.006215  0
H  H51  1  0.66368842  0.29837150  0.93325719  1  0.060652  0  0.096995  0.137473  0  1.020635  0
H  H52  1  0.71854654  0.35808813  0.99447042  1  0.035101  0  0.087603  0.116957  0  1.018574  0
H  H53  1  0.69149103  0.12955872  0.96721386  1  0.02114  0  0.091614  0.127657  0  1.00615  0
H  H54  1  0.33539461  0.13484963  0.93331364  1  0.053956  0  0.096973  0.137267  0  1.020579  0
H  H55  1  0.28107636  0.13637583  0.99455142  1  0.028756  0  0.087516  0.116788  0  1.018611  0
H  H56  1  0.24006002  0.19168542  0.08903611  1  0.02418  0  0.090524  0.124591  0  1.011567  0
H  H57  1  0.57742753  0.23236964  0.12882019  1  0.061077  0  0.089354  0.124425  0  1.046702  0
H  H58  1  0.66350396  0.17221569  0.06897738  1  0.032914  0  0.087988  0.117987  0  1.015341  0
H  H59  1  0.76008705  0.39728529  0.08893713  1  0.020815  0  0.090695  0.124772  0  1.011567  0
H  H60  1  0.42303070  0.39646283  0.12879452  1  0.019213  0  0.089313  0.124494  0  1.046322  0
H  H61  1  0.33652302  0.39675063  0.06895350  1  -0.013997  0  0.088108  0.118198  0  1.015422  0
H  H62  1  0.24398872  0.47511554  0.24426594  1  0.025331  0  0.090484  0.124735  0  1.011285  0
H  H63  1  0.58145082  0.43437060  0.20465782  1  0.068612  0  0.089345  0.124648  0  1.046176  0
H  H64  1  0.66732093  0.49446148  0.26456840  1  0.026133  0  0.088388  0.118615  0  1.014839  0
H  H65  1  0.75603111  0.26915493  0.24423241  1  0.022422  0  0.090437  0.124712  0  1.011332  0
H  H66  1  0.41829579  0.27029200  0.20465781  1  0.061986  0  0.089374  0.124786  0  1.04591  0
H  H67  1  0.33283411  0.27009802  0.26457023  1  0.028857  0  0.088457  0.118539  0  1.014806  0
H  H68  1  0.30696770  0.32906773  0.36617731  1  0.01959  0  0.091613  0.12761  0  1.006581  0
H  H69  1  0.66343463  0.36823315  0.40004859  1  0.061899  0  0.097114  0.137509  0  1.020304  0
H  H70  1  0.71720875  0.30850324  0.33878067  1  0.020897  0  0.087429  0.116642  0  1.018477  0
H  H71  1  0.69322529  0.53710518  0.36618007  1  0.016709  0  0.091527  0.127537  0  1.006451  0
H  H72  1  0.33681492  0.53183192  0.40005258  1  0.050071  0  0.097064  0.137376  0  1.020376  0
H  H73  1  0.28298972  0.53029936  0.33879147  1  0.02008  0  0.087401  0.116722  0  1.018241  0
C  C74  1  0.50000146  0.45874987  0.41750063  1  1.598402  0  0.278486  0.669405  0  4.043476  0
C  C75  1  0.49995987  0.45874498  0.54124058  1  1.549728  0  0.278439  0.669304  0  4.043524  0
C  C76  1  0.50014243  0.58249878  0.54125720  1  1.597899  0  0.27831  0.669023  0  4.043576  0
C  C77  1  0.49898212  0.20794122  0.79209940  1  1.546597  0  0.278695  0.669727  0  4.043486  0
C  C78  1  0.49879449  0.08415623  0.79206789  1  1.60231  0  0.278413  0.669397  0  4.043429  0
C  C79  1  0.49907473  0.20791501  0.91586687  1  1.525034  0  0.278537  0.669277  0  4.044528  0
C  C80  1  0.49944931  0.23760333  0.76241313  1  0.074852  0  -0.011411  -0.149256  0  3.922979  0
C  C81  1  0.51690652  0.20901151  0.70660774  1  -0.084444  0  -0.007214  0.092642  0  3.944841  0
C  C82  1  0.50695572  0.23670212  0.67864703  1  -0.045266  0  -0.006238  0.06633  0  3.911726  0
C  C83  1  0.49986892  0.29300925  0.70700787  1  0.147645  0  -0.002664  0.02233  0  4.074216  0
C  C84  1  0.49259491  0.32138010  0.76330784  1  -0.043585  0  -0.006104  0.066801  0  3.911425  0
C  C85  1  0.48228255  0.29341463  0.79098753  1  -0.088753  0  -0.007618  0.092334  0  3.944625  0
C  C86  1  0.49993223  0.32118339  0.67881495  1  -0.294958  0  -0.037033  -0.087578  0  4.109751  0
C  C87  1  0.50003038  0.34547376  0.65450391  1  -0.076063  0  -0.037125  -0.087853  0  4.109657  0
C  C88  1  0.49999492  0.37365617  0.62632404  1  0.148418  0  -0.002634  0.022668  0  4.073118  0
C  C89  1  0.49415020  0.34530598  0.57001664  1  -0.04638  0  -0.006521  0.066016  0  3.911483  0
C  C90  1  0.48358655  0.37325931  0.54232696  1  -0.083361  0  -0.007256  0.092913  0  3.945181  0
C  C91  1  0.49998654  0.42907602  0.57091722  1  0.075582  0  -0.011585  -0.149847  0  3.922438  0
C  C92  1  0.51645568  0.45766667  0.62673268  1  -0.083907  0  -0.007216  0.092903  0  3.944621  0
C  C93  1  0.50594834  0.42996608  0.65467642  1  -0.045534  0  -0.006517  0.066237  0  3.911216  0
C  C94  1  0.49918923  0.02480441  0.76239502  1  -0.135217  0  -0.011497  -0.149565  0  3.922706  0
C  C95  1  0.51664540  0.99758200  0.79098726  1  -0.009887  0  -0.007219  0.092982  0  3.94393  0
C  C96  1  0.50688307  0.94193183  0.76328740  1  0.021139  0  -0.006175  0.066252  0  3.911422  0
C  C97  1  0.49980012  0.91398877  0.70697926  1  0.20379  0  -0.002658  0.022155  0  4.074213  0
C  C98  1  0.49249358  0.94193065  0.67861731  1  -0.045778  0  -0.006026  0.067309  0  3.911248  0
C  C99  1  0.48208386  0.99757064  0.70657561  1  0.155152  0  -0.0075  0.092234  0  3.945091  0
C  C100  1  0.49985894  0.85762895  0.67880088  1  -0.303861  0  -0.036997  -0.087292  0  4.109341  0
C  C101  1  0.50003915  0.80901870  0.65451946  1  -0.074277  0  -0.03722  -0.088297  0  4.109963  0
C  C102  1  0.50006252  0.75266779  0.62633768  1  0.202984  0  -0.002702  0.022874  0  4.073421  0
C  C103  1  0.49415409  0.72471132  0.65469031  1  -0.04706  0  -0.006516  0.065988  0  3.911519  0
C  C104  1  0.48362448  0.66907304  0.62674462  1  0.153913  0  -0.007289  0.092754  0  3.945298  0
C  C105  1  0.50011237  0.64184530  0.57092714  1  -0.133642  0  -0.011493  -0.149464  0  3.921585  0
C  C106  1  0.51660417  0.66907601  0.54233641  1  -0.008977  0  -0.007161  0.092974  0  3.94416  0
C  C107  1  0.50600460  0.72471452  0.57002994  1  0.017882  0  -0.006498  0.066138  0  3.911437  0
C  C108  1  0.49953480  0.23759084  0.97520695  1  -0.019708  0  -0.011218  -0.149299  0  3.923068  0
C  C109  1  0.51697286  0.29340208  0.00241925  1  0.154463  0  -0.0073  0.092824  0  3.945204  0
C  C110  1  0.50705994  0.32135873  0.05805611  1  -0.046929  0  -0.006245  0.066441  0  3.911631  0
C  C111  1  0.49997379  0.29299961  0.08600932  1  0.202393  0  -0.002659  0.022181  0  4.074134  0
C  C112  1  0.49266783  0.23669437  0.05808771  1  0.019259  0  -0.005924  0.067185  0  3.910712  0
C  C113  1  0.48231269  0.20901226  0.00244716  1  -0.042756  0  -0.00786  0.092148  0  3.944506  0
C  C114  1  0.49998590  0.32119221  0.14236888  1  -0.294852  0  -0.036929  -0.087398  0  4.109615  0
C  C115  1  0.49997598  0.34549915  0.19098255  1  -0.017264  0  -0.037379  -0.088519  0  4.10923  0
C  C116  1  0.49999061  0.37368212  0.24734280  1  0.137217  0  -0.00249  0.023366  0  4.072602  0
C  C117  1  0.49403601  0.42998909  0.27528968  1  0.018892  0  -0.006626  0.065651  0  3.912041  0
C  C118  1  0.48353033  0.45766198  0.33092556  1  -0.010708  0  -0.007141  0.093174  0  3.944534  0
C  C119  1  0.50004285  0.42907472  0.35815646  1  -0.132531  0  -0.01157  -0.149926  0  3.922438  0
C  C120  1  0.51649749  0.37326478  0.33093599  1  0.154458  0  -0.007327  0.092854  0  3.944864  0
C  C121  1  0.50594722  0.34532050  0.27529421  1  -0.046537  0  -0.006526  0.066012  0  3.911139  0
C  C122  1  0.55406916  0.14947866  0.67674245  1  -0.016314  0  -0.239741  -0.403886  0  3.962855  0
C  C123  1  0.44523016  0.32329256  0.85051610  1  -0.01185  0  -0.239792  -0.403945  0  3.963829  0
C  C124  1  0.49390465  0.38105355  0.79326653  1  0.012467  0  -0.239729  -0.399249  0  3.983799  0
C  C125  1  0.50599924  0.20672524  0.61897378  1  0.012966  0  -0.240123  -0.399803  0  3.984457  0
C  C126  1  0.49759160  0.28563469  0.54000645  1  0.007409  0  -0.239648  -0.399492  0  3.983388  0
C  C127  1  0.50271089  0.45996764  0.71435096  1  0.007656  0  -0.239638  -0.399803  0  3.983616  0
C  C128  1  0.55322900  0.51719853  0.65662456  1  -0.019677  0  -0.239807  -0.403894  0  3.96277  0
C  C129  1  0.44692077  0.34337217  0.48279576  1  -0.020404  0  -0.239949  -0.404051  0  3.963072  0
C  C130  1  0.55388210  0.02724669  0.85052613  1  -0.057259  0  -0.23958  -0.404189  0  3.962719  0
C  C131  1  0.44506768  0.02723710  0.67670989  1  -0.079073  0  -0.239766  -0.403682  0  3.963737  0
C  C132  1  0.49387733  0.91223248  0.61894672  1  -0.023788  0  -0.240007  -0.39984  0  3.984276  0
C  C133  1  0.50582567  0.91221937  0.79325175  1  -0.116402  0  -0.239891  -0.399269  0  3.984404  0
C  C134  1  0.49750877  0.75437116  0.71436503  1  -0.110515  0  -0.239576  -0.399593  0  3.983498  0
C  C135  1  0.50279207  0.75438445  0.54002748  1  -0.116242  0  -0.239609  -0.399779  0  3.984199  0
C  C136  1  0.55339835  0.63943516  0.48280663  1  -0.049094  0  -0.240037  -0.403949  0  3.963165  0
C  C137  1  0.44695408  0.63941658  0.65661990  1  -0.055074  0  -0.239858  -0.403787  0  3.96327  0
C  C138  1  0.55409989  0.32326405  0.97275387  1  -0.074398  0  -0.239757  -0.404257  0  3.963533  0
C  C139  1  0.44525385  0.14947974  0.97280009  1  -0.06503  0  -0.239589  -0.403601  0  3.963397  0
C  C140  1  0.49391758  0.20674008  0.08780905  1  -0.115819  0  -0.239747  -0.399235  0  3.984469  0
C  C141  1  0.50618921  0.38104007  0.08775982  1  -0.024228  0  -0.240133  -0.399647  0  3.984223  0
C  C142  1  0.49727145  0.45998977  0.24562462  1  -0.115101  0  -0.239766  -0.399796  0  3.98404  0
C  C143  1  0.50269491  0.28564533  0.24562131  1  -0.110063  0  -0.239845  -0.399962  0  3.98357  0
C  C144  1  0.55328944  0.34337396  0.36057872  1  -0.05826  0  -0.23982  -0.403864  0  3.96288  0
C  C145  1  0.44689707  0.51719854  0.36057733  1  -0.048031  0  -0.239719  -0.403846  0  3.962473  0
O  O146  1  0.73576357  0.55865155  0.55124793  1  -1.262494  0  -0.235099  -0.596309  0  2.377709  0
O  O147  1  0.73557429  0.49260628  0.44135209  1  -1.258232  0  -0.235327  -0.59661  0  2.377831  0
O  O148  1  0.73554151  0.44875377  0.50739505  1  -1.264152  0  -0.235294  -0.596624  0  2.378072  0
O  O149  1  0.26458782  0.55864810  0.50739808  1  -1.258266  0  -0.235246  -0.596821  0  2.377917  0
O  O150  1  0.26440005  0.49258841  0.55123883  1  -1.26493  0  -0.235179  -0.596594  0  2.378098  0
O  O151  1  0.26430485  0.44875131  0.44133889  1  -1.262901  0  -0.235202  -0.596563  0  2.377845  0
O  O152  1  0.73438594  0.17403405  0.89198620  1  -1.260711  0  -0.235508  -0.596751  0  2.37875  0
O  O153  1  0.73437569  0.21793997  0.82597718  1  -1.262985  0  -0.235551  -0.596835  0  2.378638  0
O  O154  1  0.73427014  0.10804230  0.78208430  1  -1.263787  0  -0.235301  -0.59659  0  2.378231  0
O  O155  1  0.26331747  0.21792066  0.89204912  1  -1.263711  0  -0.235168  -0.596003  0  2.377404  0
O  O156  1  0.26310035  0.10796032  0.82590972  1  -1.258792  0  -0.235355  -0.596235  0  2.376664  0
O  O157  1  0.26316659  0.17411575  0.78209084  1  -1.263915  0  -0.235229  -0.596202  0  2.37638  0
