# generated using pymatgen
data_AlH33C45(NO)6
_symmetry_space_group_name_H-M   'P 1'
_cell_length_a   3.92882529
_cell_length_b   23.54084234
_cell_length_c   23.53433160
_cell_angle_alpha   60.05014218
_cell_angle_beta   87.24187795
_cell_angle_gamma   87.27061438
_symmetry_Int_Tables_number   1
_chemical_formula_structural   AlH33C45(NO)6
_chemical_formula_sum   'Al1 H33 C45 N6 O6'
_cell_volume   1883.09215541
_cell_formula_units_Z   1
loop_
 _symmetry_equiv_pos_site_id
 _symmetry_equiv_pos_as_xyz
  1  'x, y, z'
loop_
 _atom_site_type_symbol
 _atom_site_label
 _atom_site_symmetry_multiplicity
 _atom_site_fract_x
 _atom_site_fract_y
 _atom_site_fract_z
 _atom_site_occupancy
 _atom_site_pbe_bader_charge
 _atom_site_pbe_bader_spin_density
 _atom_site_pbe_cm5_charge
 _atom_site_pbe_ddec_charge
 _atom_site_pbe_ddec_spin_density
 _atom_site_pbe_ddec_sum_bond_order
 _atom_site_pbe_magmom
Al  Al0  1  0.97972821  0.49993197  0.49991038  1  2.50146  0  0.420698  1.587252  0  2.569968  0
H  H1  1  0.49669717  0.31929509  0.67972749  1  0.045545  0  0.101779  0.101459  0  0.988206  0
H  H2  1  0.50722411  0.25535741  0.80043299  1  0.063245  0  0.097621  0.102611  0  1.030808  0
H  H3  1  0.83754988  0.16497125  0.01594873  1  0.077685  0  0.097877  0.107354  0  1.012501  0
H  H4  1  0.47571828  0.80485515  0.25796518  1  0.047871  0  0.0978  0.104318  0  1.016343  0
H  H5  1  0.23539268  0.89468805  0.23028899  1  0.05473  0  0.096109  0.09395  0  1.017329  0
H  H6  1  0.22908950  0.01437253  0.16724974  1  0.06926  0  0.095061  0.099405  0  1.015457  0
H  H7  1  0.50980251  0.10573623  0.10547146  1  0.043836  0  0.095554  0.091996  0  1.03398  0
H  H8  1  0.53780145  0.67894140  0.49977840  1  0.022763  0  0.102393  0.102097  0  0.989355  0
H  H9  1  0.53988023  0.79947021  0.44335556  1  0.043266  0  0.097831  0.103757  0  1.036345  0
H  H10  1  0.82036296  0.01603841  0.31567873  1  0.041093  0  0.098857  0.107829  0  1.014713  0
H  H11  1  0.55322011  0.25774546  0.43608405  1  0.041272  0  0.097324  0.103831  0  1.015434  0
H  H12  1  0.26083341  0.23326425  0.37731639  1  0.063366  0  0.095856  0.093417  0  1.015444  0
H  H13  1  0.23936621  0.16982777  0.32083903  1  0.049936  0  0.09508  0.098996  0  1.015641  0
H  H14  1  0.52882997  0.10569829  0.28806643  1  0.015031  0  0.095729  0.092726  0  1.033838  0
H  H15  1  0.57513347  0.50009697  0.31909621  1  0.011797  0  0.101328  0.10002  0  0.990169  0
H  H16  1  0.57782990  0.44316947  0.25504183  1  0.012  0  0.097083  0.1029  0  1.030818  0
H  H17  1  0.86530320  0.31244450  0.16349902  1  0.059545  0  0.098139  0.107823  0  1.015143  0
H  H18  1  0.50373341  0.43616967  0.80552873  1  0.021429  0  0.098336  0.105636  0  1.012691  0
H  H19  1  0.20369258  0.37597711  0.89517158  1  0.046327  0  0.096279  0.09367  0  1.012973  0
H  H20  1  0.20248694  0.31923888  0.01560484  1  0.042669  0  0.094108  0.097658  0  1.01705  0
H  H21  1  0.53139134  0.28804959  0.10550708  1  0.014349  0  0.095214  0.09136  0  1.033598  0
H  H22  1  0.48931826  0.33159529  0.53873506  1  0.42221  0  0.302338  0.305779  0  0.955845  0
H  H23  1  0.59819888  0.26264368  0.53554781  1  0.419192  0  0.301404  0.292667  0  0.953016  0
H  H24  1  0.45809273  0.53882378  0.62966942  1  0.419621  0  0.301855  0.304467  0  0.954715  0
H  H25  1  0.56765804  0.53511668  0.69997752  1  0.407488  0  0.30093  0.293564  0  0.952765  0
H  H26  1  0.37750314  0.63020756  0.33245713  1  0.43606  0  0.302612  0.307938  0  0.959895  0
H  H27  1  0.48524694  0.70041961  0.26200151  1  0.423271  0  0.302728  0.29381  0  0.952306  0
H  H28  1  0.02619568  0.40196076  0.24312836  1  0.431926  0  0.289902  0.280843  0  0.99439  0
H  H29  1  0.12773546  0.38662891  0.18208650  1  0.424656  0  0.295699  0.292871  0  0.953076  0
H  H30  1  0.96983856  0.24511426  0.84376041  1  0.445951  0  0.287234  0.277918  0  1.004613  0
H  H31  1  0.08049981  0.18390682  0.91777406  1  0.437973  0  0.29622  0.293846  0  0.949004  0
H  H32  1  0.97404777  0.84575921  0.40519575  1  0.441195  0  0.288135  0.278307  0  1.001758  0
H  H33  1  0.05743934  0.92053374  0.39177062  1  0.417105  0  0.296428  0.293169  0  0.950475  0
C  C34  1  0.46765198  0.44861713  0.60161830  1  1.517503  0  0.27441  0.666975  0  4.052446  0
C  C35  1  0.51074754  0.44971779  0.44832906  1  1.522253  0  0.272458  0.663264  0  4.05759  0
C  C36  1  0.46861974  0.60139492  0.44978929  1  1.500209  0  0.27193  0.661718  0  4.056995  0
C  C37  1  0.49235665  0.34456264  0.70799090  1  -0.058706  0  -0.088025  -0.068918  0  4.044822  0
C  C38  1  0.50390848  0.30866695  0.77589935  1  -0.044614  0  -0.116858  -0.195625  0  4.037643  0
C  C39  1  0.70093165  0.24329774  0.92079667  1  0.316832  0  0.091315  0.256418  0  4.06407  0
C  C40  1  0.69023220  0.21082614  0.98958694  1  -0.007885  0  -0.108745  -0.254844  0  3.963272  0
C  C41  1  0.43810056  0.70989264  0.34357329  1  0.421197  0  0.10692  0.309598  0  4.060064  0
C  C42  1  0.47935138  0.77805239  0.31144687  1  -0.036978  0  -0.106028  -0.253943  0  3.925361  0
C  C43  1  0.37663571  0.92101337  0.24824921  1  -0.03017  0  -0.09475  -0.109317  0  4.038747  0
C  C44  1  0.37169976  0.98896993  0.21226587  1  -0.070638  0  -0.110123  -0.166192  0  4.033894  0
C  C45  1  0.46947690  0.41306847  0.67433253  1  0.081901  0  -0.024415  -0.15617  0  3.936941  0
C  C46  1  0.51042424  0.34109337  0.81270223  1  -0.046595  0  -0.006314  0.110134  0  4.015505  0
C  C47  1  0.52333015  0.30460192  0.88511863  1  0.004718  0  -0.023074  -0.05687  0  3.952218  0
C  C48  1  0.51919698  0.23719830  0.02489685  1  -0.088562  0  -0.009321  0.088176  0  4.036867  0
C  C49  1  0.51842529  0.20103142  0.09731824  1  0.033508  0  -0.006255  0.083769  0  4.012586  0
C  C50  1  0.51497117  0.13233922  0.13231224  1  0.040969  0  -0.088932  -0.173512  0  3.926515  0
C  C51  1  0.51672384  0.70738054  0.44660322  1  -0.037277  0  -0.086025  -0.062503  0  4.041651  0
C  C52  1  0.52758654  0.77517820  0.41453943  1  0.033624  0  -0.118781  -0.19918  0  4.03569  0
C  C53  1  0.69923092  0.92081019  0.33317166  1  0.409608  0  0.09246  0.256926  0  4.058744  0
C  C54  1  0.68338930  0.98960908  0.29718464  1  -0.060766  0  -0.108538  -0.255733  0  3.963287  0
C  C55  1  0.51513207  0.34324572  0.44647481  1  0.396809  0  0.103546  0.304287  0  4.059148  0
C  C56  1  0.54929078  0.31126239  0.40960133  1  0.067318  0  -0.105702  -0.254599  0  3.932055  0
C  C57  1  0.40523330  0.24966163  0.33128155  1  -0.078998  0  -0.094729  -0.10856  0  4.040864  0
C  C58  1  0.39245417  0.21353163  0.29959080  1  0.014197  0  -0.11094  -0.166609  0  4.036719  0
C  C59  1  0.47065621  0.67368869  0.41268565  1  0.046185  0  -0.025843  -0.162586  0  3.938836  0
C  C60  1  0.51974986  0.81222028  0.34519435  1  -0.041818  0  -0.005594  0.109944  0  4.013682  0
C  C61  1  0.53632876  0.88455261  0.30906903  1  0.029938  0  -0.023242  -0.058007  0  3.949371  0
C  C62  1  0.52364817  0.02474885  0.23704867  1  -0.113615  0  -0.00959  0.087777  0  4.035877  0
C  C63  1  0.51922753  0.09716867  0.20100202  1  0.03595  0  -0.00655  0.081994  0  4.013242  0
C  C64  1  0.52610352  0.13225118  0.23462672  1  -0.001632  0  -0.089563  -0.173969  0  3.926607  0
C  C65  1  0.56441535  0.44674206  0.34429358  1  0.008375  0  -0.086803  -0.065361  0  4.040667  0
C  C66  1  0.57437886  0.41452398  0.30837130  1  0.015805  0  -0.117327  -0.195247  0  4.0323  0
C  C67  1  0.74854991  0.33138543  0.24259645  1  0.381529  0  0.093094  0.25918  0  4.063225  0
C  C68  1  0.72515629  0.29539163  0.21012312  1  -0.060709  0  -0.109753  -0.259781  0  3.962971  0
C  C69  1  0.46224798  0.44680336  0.71009125  1  0.359788  0  0.102826  0.301715  0  4.059072  0
C  C70  1  0.49243740  0.40982236  0.77848240  1  0.099349  0  -0.104776  -0.252172  0  3.928875  0
C  C71  1  0.35255974  0.33038690  0.92160921  1  0.018757  0  -0.094323  -0.107091  0  4.03713  0
C  C72  1  0.35124153  0.29856943  0.98964077  1  -0.115118  0  -0.110694  -0.167708  0  4.036008  0
C  C73  1  0.53064081  0.41256966  0.41274452  1  0.065075  0  -0.024346  -0.156927  0  3.935596  0
C  C74  1  0.57294237  0.34526948  0.34087183  1  -0.19126  0  -0.006907  0.109684  0  4.020282  0
C  C75  1  0.57872890  0.30896816  0.30463073  1  0.000146  0  -0.024471  -0.060931  0  3.960312  0
C  C76  1  0.55060451  0.23678120  0.23732541  1  -0.037245  0  -0.009109  0.087155  0  4.038157  0
C  C77  1  0.53305971  0.20086487  0.20106946  1  -0.052641  0  -0.006449  0.084029  0  4.015053  0
C  C78  1  0.52691025  0.23460863  0.13236378  1  -0.000864  0  -0.089768  -0.176224  0  3.930058  0
N  N79  1  0.47106787  0.30662200  0.51419147  1  -1.15655  0  -0.600149  -0.629244  0  3.303674  0
N  N80  1  0.43121058  0.51483578  0.67938078  1  -1.197459  0  -0.60133  -0.631553  0  3.290385  0
N  N81  1  0.37403908  0.68001232  0.30744322  1  -1.204204  0  -0.598638  -0.628252  0  3.319385  0
N  N82  1  0.93638054  0.38843201  0.21188489  1  -1.210112  0  -0.611672  -0.629356  0  3.307471  0
N  N83  1  0.88565499  0.21333690  0.89022494  1  -1.22528  0  -0.612724  -0.634235  0  3.309828  0
N  N84  1  0.87472349  0.89134413  0.39173334  1  -1.210296  0  -0.611758  -0.628667  0  3.309876  0
O  O85  1  0.24352393  0.57234076  0.43634737  1  -1.257007  0  -0.23971  -0.60311  0  2.36526  0
O  O86  1  0.22563662  0.49058403  0.57310225  1  -1.260582  0  -0.238804  -0.597926  0  2.353041  0
O  O87  1  0.26733727  0.43660540  0.49104770  1  -1.267613  0  -0.240336  -0.603695  0  2.368962  0
O  O88  1  0.69284459  0.57102743  0.49359329  1  -1.270318  0  -0.245738  -0.611754  0  2.360834  0
O  O89  1  0.73468449  0.49267648  0.43491428  1  -1.251483  0  -0.243435  -0.604644  0  2.350418  0
O  O90  1  0.70960772  0.43531169  0.57137805  1  -1.24967  0  -0.243546  -0.606974  0  2.355367  0
