# generated using pymatgen
data_Zn2H30C48S(N2O5)2
_symmetry_space_group_name_H-M   'P 1'
_cell_length_a   14.55207943
_cell_length_b   14.55207740
_cell_length_c   15.90804586
_cell_angle_alpha   99.97692369
_cell_angle_beta   99.97689730
_cell_angle_gamma   118.75321279
_symmetry_Int_Tables_number   1
_chemical_formula_structural   Zn2H30C48S(N2O5)2
_chemical_formula_sum   'Zn4 H60 C96 S2 N8 O20'
_cell_volume   2777.30274320
_cell_formula_units_Z   2
loop_
 _symmetry_equiv_pos_site_id
 _symmetry_equiv_pos_as_xyz
  1  'x, y, z'
loop_
 _atom_site_type_symbol
 _atom_site_label
 _atom_site_symmetry_multiplicity
 _atom_site_fract_x
 _atom_site_fract_y
 _atom_site_fract_z
 _atom_site_occupancy
 _atom_site_pbe_bader_charge
 _atom_site_pbe_bader_spin_density
 _atom_site_pbe_cm5_charge
 _atom_site_pbe_ddec_charge
 _atom_site_pbe_ddec_spin_density
 _atom_site_pbe_ddec_sum_bond_order
 _atom_site_pbe_magmom
Zn  Zn0  1  0.13976200  0.10001733  0.92273831  1  1.280504  0  0.684039  0.830486  0  2.350135  0
Zn  Zn1  1  0.10001685  0.13976126  0.42273831  1  1.280504  0  0.68402  0.830461  0  2.350133  0
Zn  Zn2  1  0.26913939  0.26255260  0.13891355  1  1.297108  0  0.688061  0.850521  0  2.322548  0
Zn  Zn3  1  0.26255242  0.26913942  0.63891334  1  1.297109  0  0.688092  0.850556  0  2.322528  0
H  H4  1  0.81152058  0.80995149  0.65720003  1  0.056854  0  0.098925  0.10286  0  1.05534  0
H  H5  1  0.80995251  0.81152074  0.15719977  1  0.056855  0  0.098912  0.10286  0  1.055342  0
H  H6  1  0.91212649  0.92329291  0.81580009  1  0.118078  0  0.115598  0.093083  0  1.025131  0
H  H7  1  0.92329231  0.91212646  0.31580017  1  0.118081  0  0.115584  0.093071  0  1.025158  0
H  H8  1  0.21036491  0.06913769  0.76082928  1  0.128979  0  0.118574  0.095387  0  1.014101  0
H  H9  1  0.06913723  0.21036536  0.26082886  1  0.128977  0  0.11857  0.095374  0  1.014117  0
H  H10  1  0.12269817  0.96531878  0.59998762  1  0.137412  0  0.108611  0.12618  0  1.028913  0
H  H11  1  0.96531938  0.12269840  0.09998777  1  0.137423  0  0.108607  0.12618  0  1.02893  0
H  H12  1  0.96103878  0.82503481  0.47908634  1  0.11493  0  0.103621  0.111221  0  1.046498  0
H  H13  1  0.82503376  0.96103822  0.97908593  1  0.114908  0  0.10361  0.111192  0  1.046529  0
H  H14  1  0.74801635  0.79729465  0.51206824  1  0.065763  0  0.101201  0.100184  0  1.026051  0
H  H15  1  0.79729448  0.74801642  0.01206777  1  0.065757  0  0.101205  0.100179  0  1.026048  0
H  H16  1  0.77890879  0.61518772  0.18947212  1  0.080536  0  0.10347  0.106838  0  1.019395  0
H  H17  1  0.61518714  0.77890846  0.68947245  1  0.080534  0  0.103466  0.106835  0  1.019408  0
H  H18  1  0.86295601  0.69004020  0.35064289  1  0.072753  0  0.111016  0.117386  0  0.984568  0
H  H19  1  0.69004058  0.86295633  0.85064348  1  0.072745  0  0.111002  0.117366  0  0.984593  0
H  H20  1  0.64997713  0.57828878  0.05369564  1  0.062761  0  0.09883  0.093717  0  1.025887  0
H  H21  1  0.57828925  0.64997702  0.55369615  1  0.06277  0  0.098835  0.093724  0  1.025868  0
H  H22  1  0.43817199  0.56102128  0.08082557  1  0.158778  0  0.107306  0.125726  0  1.036492  0
H  H23  1  0.56102111  0.43817169  0.58082466  1  0.158789  0  0.107332  0.125811  0  1.036499  0
H  H24  1  0.27706167  0.41356427  0.96181970  1  0.130025  0  0.111908  0.133911  0  1.020884  0
H  H25  1  0.41356516  0.27706125  0.46181930  1  0.130028  0  0.111922  0.1339  0  1.020868  0
H  H26  1  0.19050526  0.30746518  0.79998846  1  0.126289  0  0.116458  0.089584  0  1.018959  0
H  H27  1  0.30746519  0.19050499  0.29998858  1  0.126289  0  0.116462  0.089596  0  1.018958  0
H  H28  1  0.49131968  0.44074996  0.74991622  1  0.100221  0  0.11433  0.093239  0  1.021782  0
H  H29  1  0.44075007  0.49131996  0.24991648  1  0.100252  0  0.114329  0.093242  0  1.021772  0
H  H30  1  0.59094942  0.55541341  0.90892564  1  0.056424  0  0.100876  0.105742  0  1.050704  0
H  H31  1  0.55541338  0.59094970  0.40892587  1  0.056423  0  0.100868  0.105736  0  1.050696  0
H  H32  1  0.00443375  0.80445364  0.97660543  1  0.127108  0  0.10437  0.112055  0  1.001631  0
H  H33  1  0.80445398  0.00443396  0.47660554  1  0.127111  0  0.104381  0.112044  0  1.001628  0
H  H34  1  0.93104160  0.63345726  0.02433218  1  0.129053  0  0.101493  0.117905  0  1.043981  0
H  H35  1  0.63345750  0.93104194  0.52433278  1  0.129063  0  0.1015  0.117918  0  1.043962  0
H  H36  1  0.11101918  0.82918716  0.29788636  1  0.13219  0  0.101987  0.117388  0  1.046232  0
H  H37  1  0.82918674  0.11101952  0.79788603  1  0.132194  0  0.101989  0.117396  0  1.046222  0
H  H38  1  0.18164906  0.00023974  0.25036575  1  0.074338  0  0.104196  0.105736  0  1.021449  0
H  H39  1  0.00023999  0.18164938  0.75036632  1  0.074334  0  0.104193  0.10572  0  1.02146  0
H  H40  1  0.91321358  0.43304566  0.20308384  1  0.083234  0  0.106257  0.120961  0  0.988109  0
H  H41  1  0.43304505  0.91321304  0.70308357  1  0.083225  0  0.106281  0.120983  0  0.988029  0
H  H42  1  0.00598376  0.32791755  0.18050340  1  0.076066  0  0.105993  0.107573  0  1.003984  0
H  H43  1  0.32791759  0.00598365  0.68050314  1  0.076053  0  0.105993  0.107574  0  1.003994  0
H  H44  1  0.26848077  0.60098781  0.13279702  1  0.112794  0  0.103701  0.108376  0  1.005311  0
H  H45  1  0.60098654  0.26848010  0.63279709  1  0.112799  0  0.103692  0.108399  0  1.00531  0
H  H46  1  0.17625481  0.70661592  0.15365027  1  0.090121  0  0.104916  0.122899  0  1.011149  0
H  H47  1  0.70661633  0.17625478  0.65365067  1  0.090108  0  0.104912  0.122865  0  1.011194  0
H  H48  1  0.57166861  0.37908665  0.12282137  1  0.084621  0  0.107213  0.11321  0  0.996363  0
H  H49  1  0.37908665  0.57166928  0.62282133  1  0.084621  0  0.107226  0.113216  0  0.996353  0
H  H50  1  0.76269154  0.45882649  0.10630641  1  0.070234  0  0.105141  0.119369  0  1.018583  0
H  H51  1  0.45882741  0.76269182  0.60630710  1  0.070184  0  0.10514  0.119369  0  1.01856  0
H  H52  1  0.62332625  0.27750833  0.82692688  1  0.111871  0  0.099551  0.113069  0  1.044214  0
H  H53  1  0.27750941  0.62332714  0.32692744  1  0.111886  0  0.099521  0.113013  0  1.044206  0
H  H54  1  0.43466610  0.19919054  0.84353133  1  0.099733  0  0.1053  0.111732  0  1.011375  0
H  H55  1  0.19919025  0.43466591  0.34353086  1  0.099732  0  0.105294  0.111715  0  1.011395  0
H  H56  1  0.72881100  0.22252014  0.98192699  1  0.076329  0  0.104628  0.122437  0  1.005257  0
H  H57  1  0.22252024  0.72881188  0.48192743  1  0.075931  0  0.104636  0.122446  0  1.005273  0
H  H58  1  0.82463935  0.11989683  0.97439030  1  0.100197  0  0.103956  0.101758  0  1.010141  0
H  H59  1  0.11989681  0.82463889  0.47438992  1  0.100191  0  0.103955  0.101759  0  1.010156  0
H  H60  1  0.09080966  0.38507755  0.92224398  1  0.091206  0  0.107643  0.111287  0  0.995293  0
H  H61  1  0.38507747  0.09080977  0.42224411  1  0.091203  0  0.10763  0.111278  0  0.995311  0
H  H62  1  0.99433021  0.48860370  0.92780206  1  0.071058  0  0.1068  0.121539  0  0.989923  0
H  H63  1  0.48860350  0.99433057  0.42780112  1  0.071067  0  0.106805  0.121545  0  0.989896  0
C  C64  1  0.95814113  0.87788593  0.61343658  1  -0.031392  0  0.010058  0.155203  0  4.004525  0
C  C65  1  0.87788644  0.95814182  0.11343634  1  -0.031408  0  0.010082  0.15525  0  4.004471  0
C  C66  1  0.89990204  0.86628790  0.67683299  1  0.039913  0  -0.083696  -0.171773  0  3.933649  0
C  C67  1  0.86628854  0.89990193  0.17683200  1  0.039713  0  -0.08368  -0.171784  0  3.933562  0
C  C68  1  0.95507490  0.92777243  0.76552813  1  0.445456  0  0.041821  0.090948  0  3.946136  0
C  C69  1  0.92777260  0.95507475  0.26552832  1  0.445676  0  0.041821  0.090929  0  3.946141  0
C  C70  1  0.12235436  0.00955748  0.73530847  1  0.464643  0  0.049311  0.102933  0  3.925335  0
C  C71  1  0.00955740  0.12235444  0.23530805  1  0.464649  0  0.049312  0.102946  0  3.925337  0
C  C72  1  0.07278666  0.95026180  0.64552680  1  -0.037939  0  -0.079005  -0.164649  0  3.891231  0
C  C73  1  0.95026211  0.07278646  0.14552620  1  -0.037969  0  -0.079025  -0.164699  0  3.891285  0
C  C74  1  0.90583271  0.82337165  0.51809943  1  -0.017888  0  -0.083127  -0.120691  0  3.925427  0
C  C75  1  0.82337180  0.90583241  0.01809898  1  -0.017873  0  -0.08312  -0.120644  0  3.925449  0
C  C76  1  0.80008806  0.78601393  0.47484092  1  -0.070021  0  -0.079657  -0.099614  0  3.961681  0
C  C77  1  0.78601424  0.80008766  0.97484135  1  -0.070023  0  -0.079661  -0.099646  0  3.961677  0
C  C78  1  0.75170597  0.73992724  0.37868851  1  0.09406  0  -0.003864  0.046602  0  4.01458  0
C  C79  1  0.73992690  0.75170524  0.87868816  1  0.094101  0  -0.003839  0.046686  0  4.014526  0
C  C80  1  0.65770689  0.74157667  0.33562456  1  0.408941  0  0.106277  0.110936  0  4.012886  0
C  C81  1  0.74157630  0.65770670  0.83562490  1  0.408952  0  0.106273  0.110948  0  4.012937  0
C  C82  1  0.60702220  0.69633307  0.23984491  1  0.49382  0  0.109937  0.122212  0  3.984037  0
C  C83  1  0.69633212  0.60702168  0.73984448  1  0.493822  0  0.109949  0.122203  0  3.984045  0
C  C84  1  0.64845824  0.64630675  0.18442196  1  0.004594  0  -0.003691  0.048839  0  4.013627  0
C  C85  1  0.64630666  0.64845823  0.68442239  1  0.004581  0  -0.003666  0.048887  0  4.013614  0
C  C86  1  0.74251757  0.64990182  0.22885604  1  -0.012784  0  -0.08314  -0.12745  0  3.968348  0
C  C87  1  0.64990141  0.74251764  0.72885582  1  -0.012793  0  -0.083154  -0.127476  0  3.968351  0
C  C88  1  0.79167679  0.69393244  0.32193925  1  -0.093376  0  -0.079427  -0.111926  0  3.956778  0
C  C89  1  0.69393165  0.79167706  0.82193900  1  -0.093391  0  -0.079412  -0.111924  0  3.956784  0
C  C90  1  0.59855513  0.59398418  0.08914713  1  -0.128989  0  -0.08372  -0.110365  0  3.982195  0
C  C91  1  0.59398417  0.59855490  0.58914754  1  -0.128982  0  -0.083751  -0.110406  0  3.982118  0
C  C92  1  0.49286850  0.55528738  0.04422215  1  0.045879  0  -0.078048  -0.108561  0  3.898917  0
C  C93  1  0.55528739  0.49286837  0.54422194  1  0.045869  0  -0.078038  -0.10859  0  3.898821  0
C  C94  1  0.44224850  0.49549327  0.94965305  1  0.014459  0  0.011839  0.156676  0  4.003768  0
C  C95  1  0.49549388  0.44224923  0.44965281  1  0.014461  0  0.011852  0.156688  0  4.003691  0
C  C96  1  0.32740418  0.42509980  0.91663551  1  -0.049878  0  -0.078632  -0.165954  0  3.887412  0
C  C97  1  0.42510013  0.32740464  0.41663580  1  -0.049866  0  -0.078695  -0.166007  0  3.887326  0
C  C98  1  0.27887884  0.36470499  0.82700372  1  0.44363  0  0.047374  0.102851  0  3.92881  0
C  C99  1  0.36470501  0.27887946  0.32700336  1  0.443651  0  0.047413  0.102878  0  3.928799  0
C  C100  1  0.44769969  0.43958368  0.79930505  1  0.397967  0  0.040622  0.088708  0  3.942972  0
C  C101  1  0.43958431  0.44770042  0.29930545  1  0.397916  0  0.04061  0.088689  0  3.942964  0
C  C102  1  0.50207078  0.50190569  0.88790842  1  0.084187  0  -0.088254  -0.178374  0  3.94292  0
C  C103  1  0.50190547  0.50207109  0.38790798  1  0.084165  0  -0.08827  -0.178388  0  3.942915  0
C  C104  1  0.14227972  0.01408611  0.08078319  1  1.554711  0  0.221318  0.606351  0  4.16865  0
C  C105  1  0.01408622  0.14227947  0.58078301  1  1.554713  0  0.221334  0.606354  0  4.168657  0
C  C106  1  0.09882740  0.91270155  0.11029217  1  0.014116  0  -0.021731  -0.057067  0  3.971991  0
C  C107  1  0.91270165  0.09882797  0.61029193  1  0.014121  0  -0.021735  -0.057108  0  3.971965  0
C  C108  1  0.02747961  0.80928786  0.04681685  1  -0.078691  0  -0.081002  -0.064458  0  3.970834  0
C  C109  1  0.80928793  0.02747968  0.54681717  1  -0.07871  0  -0.08098  -0.064379  0  3.970805  0
C  C110  1  0.98661180  0.71413482  0.07302982  1  -0.099187  0  -0.103451  -0.207058  0  4.000007  0
C  C111  1  0.71413557  0.98661200  0.57303047  1  -0.099166  0  -0.103472  -0.207091  0  4.00001  0
C  C112  1  0.01888000  0.72349288  0.16346789  1  0.409902  0  0.081439  0.253078  0  4.044559  0
C  C113  1  0.72349301  0.01888011  0.66346824  1  0.409881  0  0.081425  0.253056  0  4.044588  0
C  C114  1  0.08772270  0.82516329  0.22795386  1  -0.036568  0  -0.099879  -0.193432  0  3.981831  0
C  C115  1  0.82516327  0.08772351  0.72795366  1  -0.036566  0  -0.099893  -0.193468  0  3.981853  0
C  C116  1  0.12745159  0.91989278  0.20101482  1  -0.012586  0  -0.08148  -0.065398  0  3.964937  0
C  C117  1  0.91989253  0.12745201  0.70101513  1  -0.012584  0  -0.081464  -0.065344  0  3.964917  0
C  C118  1  0.03863040  0.57519667  0.17887558  1  0.368151  0  0.088038  0.276502  0  4.033736  0
C  C119  1  0.57519654  0.03862961  0.67887577  1  0.368173  0  0.088041  0.276509  0  4.033635  0
C  C120  1  0.99124073  0.46927590  0.18791445  1  0.031905  0  -0.103406  -0.206486  0  3.997191  0
C  C121  1  0.46927550  0.99124060  0.68791428  1  0.031908  0  -0.103443  -0.206534  0  3.997111  0
C  C122  1  0.04329068  0.41128875  0.17557035  1  -0.060419  0  -0.079168  -0.064295  0  3.986962  0
C  C123  1  0.41128770  0.04329007  0.67556983  1  -0.0604  0  -0.079158  -0.064291  0  3.987001  0
C  C124  1  0.14317375  0.45797854  0.15510771  1  0.043255  0  -0.030344  -0.060754  0  4.004178  0
C  C125  1  0.45797735  0.14317220  0.65510703  1  0.043475  0  -0.030333  -0.060684  0  4.004093  0
C  C126  1  0.19051119  0.56494138  0.14814611  1  -0.103467  0  -0.086256  -0.074151  0  4.002836  0
C  C127  1  0.56494076  0.19051064  0.64814567  1  -0.10357  0  -0.086275  -0.074262  0  4.002831  0
C  C128  1  0.13914691  0.62383575  0.15973004  1  -0.034172  0  -0.112343  -0.22563  0  4.012401  0
C  C129  1  0.62383630  0.13914723  0.65972990  1  -0.034156  0  -0.112328  -0.225545  0  4.012381  0
C  C130  1  0.19986751  0.39695029  0.14113807  1  1.531441  0  0.193493  0.553218  0  4.233254  0
C  C131  1  0.39695066  0.19986756  0.64113791  1  1.531292  0  0.193476  0.553196  0  4.233307  0
C  C132  1  0.37934959  0.24091790  0.99438044  1  1.571179  0  0.221046  0.602671  0  4.171148  0
C  C133  1  0.24091760  0.37935013  0.49438069  1  1.571154  0  0.221016  0.602601  0  4.171211  0
C  C134  1  0.49209940  0.28498351  0.98428281  1  -0.025039  0  -0.021764  -0.053772  0  3.965898  0
C  C135  1  0.28498294  0.49209948  0.48428358  1  -0.025233  0  -0.021755  -0.053758  0  3.965913  0
C  C136  1  0.58424879  0.35769807  0.05851738  1  -0.061864  0  -0.079883  -0.065413  0  3.974827  0
C  C137  1  0.35769721  0.58424827  0.55851765  1  -0.061793  0  -0.079922  -0.065439  0  3.974862  0
C  C138  1  0.68961803  0.40226347  0.04968199  1  0.04821  0  -0.09849  -0.2023  0  3.993312  0
C  C139  1  0.40226319  0.68961799  0.54968244  1  0.048155  0  -0.0985  -0.202326  0  3.993276  0
C  C140  1  0.70187004  0.37360989  0.96595247  1  0.390387  0  0.079862  0.250575  0  4.054096  0
C  C141  1  0.37360944  0.70187102  0.46595343  1  0.390673  0  0.079894  0.250591  0  4.054033  0
C  C142  1  0.61143555  0.30010332  0.89136103  1  -0.113459  0  -0.101132  -0.206151  0  4.002953  0
C  C143  1  0.30010237  0.61143524  0.39136170  1  -0.113616  0  -0.101118  -0.206109  0  4.00293  0
C  C144  1  0.50646629  0.25601283  0.90094233  1  0.036011  0  -0.076804  -0.05873  0  3.949955  0
C  C145  1  0.25601180  0.50646640  0.40094242  1  0.036131  0  -0.076775  -0.058688  0  3.949986  0
C  C146  1  0.85592688  0.36081025  0.95400101  1  0.418901  0  0.09115  0.274251  0  4.038441  0
C  C147  1  0.36081066  0.85592777  0.45400086  1  0.419262  0  0.091154  0.274239  0  4.038483  0
C  C148  1  0.80757802  0.25758372  0.96818919  1  -0.015748  0  -0.10917  -0.218082  0  4.010589  0
C  C149  1  0.25758358  0.80757813  0.46818885  1  -0.015668  0  -0.109179  -0.218091  0  4.010621  0
C  C150  1  0.86162362  0.20082654  0.96438058  1  -0.100828  0  -0.081463  -0.066325  0  4.002466  0
C  C151  1  0.20082580  0.86162298  0.46438068  1  -0.100834  0  -0.081463  -0.066344  0  4.002467  0
C  C152  1  0.96339525  0.24542259  0.94732330  1  0.005428  0  -0.031074  -0.065251  0  4.006843  0
C  C153  1  0.24542198  0.96339524  0.44732353  1  0.005434  0  -0.031095  -0.065241  0  4.006784  0
C  C154  1  0.01117434  0.34975522  0.93464146  1  -0.008871  0  -0.076654  -0.058814  0  3.972541  0
C  C155  1  0.34975498  0.01117456  0.43464157  1  -0.00886  0  -0.076636  -0.058808  0  3.972532  0
C  C156  1  0.95786433  0.40741932  0.93742235  1  -0.025956  0  -0.102561  -0.206725  0  3.998206  0
C  C157  1  0.40741897  0.95786439  0.43742197  1  -0.025941  0  -0.10258  -0.20676  0  3.99824  0
C  C158  1  0.01563890  0.17932202  0.94001817  1  1.534901  0  0.195942  0.557566  0  4.23485  0
C  C159  1  0.17932201  0.01563892  0.44001833  1  1.534904  0  0.195984  0.557615  0  4.234664  0
S  S160  1  0.50952730  0.77047166  0.30022230  1  1.269856  0  0.39831  0.442393  0  3.341816  0
S  S161  1  0.77047175  0.50952812  0.80022284  1  1.269834  0  0.398228  0.442301  0  3.341937  0
N  N162  1  0.06491488  0.99952565  0.79482244  1  -1.269199  0  -0.334905  -0.239381  0  3.559017  0
N  N163  1  0.99952558  0.06491506  0.29482246  1  -1.269188  0  -0.33489  -0.239345  0  3.558992  0
N  N164  1  0.60841126  0.78558889  0.37758747  1  -1.183316  0  -0.304659  -0.349857  0  3.176621  0
N  N165  1  0.78558848  0.60841160  0.87758787  1  -1.183357  0  -0.304611  -0.349829  0  3.176735  0
N  N166  1  0.52205911  0.70950960  0.21205755  1  -1.189345  0  -0.301623  -0.339478  0  3.181893  0
N  N167  1  0.70950986  0.52205917  0.71205801  1  -1.189289  0  -0.301615  -0.339461  0  3.181939  0
N  N168  1  0.33734470  0.37130847  0.76860465  1  -1.254712  0  -0.332067  -0.240895  0  3.542138  0
N  N169  1  0.37130888  0.33734483  0.26860428  1  -1.254705  0  -0.33204  -0.240849  0  3.542108  0
O  O170  1  0.11896186  0.99972271  0.99680127  1  -1.149252  0  -0.315849  -0.539648  0  2.377899  0
O  O171  1  0.99972161  0.11896179  0.49680110  1  -1.14925  0  -0.315842  -0.539648  0  2.377915  0
O  O172  1  0.19861401  0.10622673  0.14161754  1  -1.196761  0  -0.313009  -0.552664  0  2.378535  0
O  O173  1  0.10622659  0.19861405  0.64161735  1  -1.196756  0  -0.313035  -0.552655  0  2.378514  0
O  O174  1  0.98195378  0.62792945  0.19004886  1  -1.095428  0  -0.163795  -0.237623  0  2.522237  0
O  O175  1  0.62792965  0.98195328  0.69004932  1  -1.095446  0  -0.163815  -0.237643  0  2.522209  0
O  O176  1  0.15145198  0.29654136  0.14481249  1  -1.15982  0  -0.326529  -0.561544  0  2.308837  0
O  O177  1  0.29654114  0.15145130  0.64481214  1  -1.15981  0  -0.326538  -0.561578  0  2.308873  0
O  O178  1  0.29249135  0.44253736  0.12784695  1  -1.176865  0  -0.317856  -0.554265  0  2.188341  0
O  O179  1  0.44253731  0.29249094  0.62784541  1  -1.176874  0  -0.317838  -0.554264  0  2.188412  0
O  O180  1  0.29828399  0.16951642  0.92668250  1  -1.172316  0  -0.312579  -0.539596  0  2.345099  0
O  O181  1  0.16951638  0.29828433  0.42668276  1  -1.1723  0  -0.31256  -0.539564  0  2.34509  0
O  O182  1  0.37427451  0.27982855  0.07035166  1  -1.177374  0  -0.313762  -0.549426  0  2.410637  0
O  O183  1  0.27982845  0.37427443  0.57035147  1  -1.177369  0  -0.31373  -0.54935  0  2.410643  0
O  O184  1  0.80771651  0.42254033  0.95717680  1  -1.089756  0  -0.157744  -0.235001  0  2.599757  0
O  O185  1  0.42254037  0.80771673  0.45717710  1  -1.08982  0  -0.157743  -0.234967  0  2.599717  0
O  O186  1  0.96239823  0.07966871  0.93724919  1  -1.184396  0  -0.318053  -0.558875  0  2.200136  0
O  O187  1  0.07966816  0.96239822  0.43724946  1  -1.184413  0  -0.318063  -0.558887  0  2.200055  0
O  O188  1  0.11532176  0.22615510  0.93483437  1  -1.165822  0  -0.329078  -0.567991  0  2.308029  0
O  O189  1  0.22615496  0.11532251  0.43483463  1  -1.165819  0  -0.329077  -0.567989  0  2.307957  0
