# generated using pymatgen
data_CuH8C11N5
_symmetry_space_group_name_H-M   'P 1'
_cell_length_a   10.86079793
_cell_length_b   18.15970962
_cell_length_c   18.15971261
_cell_angle_alpha   80.68024622
_cell_angle_beta   86.58172845
_cell_angle_gamma   86.58143948
_symmetry_Int_Tables_number   1
_chemical_formula_structural   CuH8C11N5
_chemical_formula_sum   'Cu8 H64 C88 N40'
_cell_volume   3523.51195038
_cell_formula_units_Z   8
loop_
 _symmetry_equiv_pos_site_id
 _symmetry_equiv_pos_as_xyz
  1  'x, y, z'
loop_
 _atom_site_type_symbol
 _atom_site_label
 _atom_site_symmetry_multiplicity
 _atom_site_fract_x
 _atom_site_fract_y
 _atom_site_fract_z
 _atom_site_occupancy
 _atom_site_pbe_bader_charge
 _atom_site_pbe_bader_spin_density
 _atom_site_pbe_cm5_charge
 _atom_site_pbe_ddec_charge
 _atom_site_pbe_ddec_spin_density
 _atom_site_pbe_ddec_sum_bond_order
 _atom_site_pbe_magmom
Cu  Cu0  1  0.53189277  0.59387333  0.52157790  1  0.678836  0  0.575845  0.256637  0  2.457341  0
Cu  Cu1  1  0.96810705  0.47841968  0.40612756  1  0.678886  0  0.575828  0.256619  0  2.457407  0
Cu  Cu2  1  0.46810696  0.40612398  0.47842361  1  0.678875  0  0.575849  0.256649  0  2.457281  0
Cu  Cu3  1  0.03189276  0.52157650  0.59387633  1  0.678886  0  0.575853  0.256638  0  2.457353  0
Cu  Cu4  1  0.25000097  0.53842779  0.46157103  1  0.759473  0  0.617788  0.232102  0  2.726476  0
Cu  Cu5  1  0.75000060  0.46156950  0.53843153  1  0.759678  0  0.617847  0.232306  0  2.72632  0
Cu  Cu6  1  0.75000088  0.62106435  0.37893268  1  0.593182  0  0.522067  0.278671  0  2.08679  0
Cu  Cu7  1  0.24999875  0.37893465  0.62106637  1  0.593144  0  0.522065  0.278646  0  2.086883  0
H  H8  1  0.09358948  0.54654473  0.76904189  1  0.09278  0  0.113882  0.134569  0  0.986736  0
H  H9  1  0.40641118  0.23095753  0.45345627  1  0.0928  0  0.11388  0.134582  0  0.986732  0
H  H10  1  0.90641174  0.45345703  0.23096164  1  0.092743  0  0.113877  0.134543  0  0.98675  0
H  H11  1  0.59358853  0.76904035  0.54654351  1  0.092752  0  0.113875  0.134557  0  0.986774  0
H  H12  1  0.53931406  0.61112977  0.70028244  1  0.089049  0  0.11118  0.134588  0  0.994408  0
H  H13  1  0.96068509  0.29971696  0.38887165  1  0.08905  0  0.111166  0.134537  0  0.994426  0
H  H14  1  0.46068617  0.38887312  0.29971819  1  0.089079  0  0.111167  0.134524  0  0.994463  0
H  H15  1  0.03931457  0.70028148  0.61112860  1  0.089076  0  0.111175  0.134557  0  0.994426  0
H  H16  1  0.05932169  0.55922712  0.98561711  1  0.037819  0  0.089241  0.127457  0  1.024353  0
H  H17  1  0.44067782  0.01438021  0.44077446  1  0.037823  0  0.089259  0.127471  0  1.024357  0
H  H18  1  0.94067860  0.44077523  0.01438195  1  0.037791  0  0.089227  0.127434  0  1.024353  0
H  H19  1  0.55932176  0.98561934  0.55922506  1  0.037814  0  0.089236  0.127432  0  1.024368  0
H  H20  1  0.08523915  0.56088453  0.08186196  1  0.049712  0  0.087073  0.122178  0  1.020351  0
H  H21  1  0.41476162  0.91813578  0.43911653  1  0.049671  0  0.08704  0.122128  0  1.020351  0
H  H22  1  0.91476029  0.43911670  0.91813786  1  0.049714  0  0.087062  0.122144  0  1.020397  0
H  H23  1  0.58523888  0.08186377  0.56088351  1  0.049679  0  0.087056  0.122119  0  1.020343  0
H  H24  1  0.16565570  0.49342197  0.03375228  1  0.020213  0  0.088851  0.129596  0  1.017013  0
H  H25  1  0.33434534  0.96624512  0.50657876  1  0.020174  0  0.088845  0.129563  0  1.017045  0
H  H26  1  0.83434375  0.50657926  0.96624698  1  0.020157  0  0.08885  0.129576  0  1.017049  0
H  H27  1  0.66565516  0.03375444  0.49342073  1  0.020176  0  0.088849  0.129562  0  1.01702  0
H  H28  1  0.23830322  0.72985659  0.97868901  1  -0.001548  0  0.084725  0.112904  0  1.030021  0
H  H29  1  0.26169437  0.02131185  0.27014486  1  -0.001539  0  0.084703  0.112832  0  1.030119  0
H  H30  1  0.76169806  0.27014462  0.02131185  1  -0.001514  0  0.084703  0.112872  0  1.030105  0
H  H31  1  0.73830239  0.97868827  0.72985632  1  -0.001523  0  0.084702  0.112877  0  1.030083  0
H  H32  1  0.12528513  0.69655460  0.04965770  1  0.052123  0  0.093974  0.133823  0  0.990548  0
H  H33  1  0.37471490  0.95034206  0.30344664  1  0.052172  0  0.09396  0.133812  0  0.990562  0
H  H34  1  0.87471611  0.30344718  0.95034197  1  0.052162  0  0.093955  0.133808  0  0.990541  0
H  H35  1  0.62528368  0.04965862  0.69655219  1  0.052163  0  0.09396  0.133798  0  0.990595  0
H  H36  1  0.10065966  0.69350240  0.95339823  1  0.035757  0  0.0947  0.134895  0  0.98909  0
H  H37  1  0.39933912  0.04660168  0.30649992  1  0.035744  0  0.094715  0.134919  0  0.989025  0
H  H38  1  0.89934255  0.30649882  0.04660150  1  0.035704  0  0.094686  0.134863  0  0.989122  0
H  H39  1  0.60065857  0.95339844  0.69350012  1  0.035721  0  0.094701  0.134898  0  0.989057  0
H  H40  1  0.69328390  0.61248369  0.99425775  1  0.041663  0  0.089364  0.124073  0  1.019163  0
H  H41  1  0.80671630  0.00574204  0.38751549  1  0.041655  0  0.089373  0.124104  0  1.019143  0
H  H42  1  0.30671937  0.38751585  0.00574220  1  0.041834  0  0.089377  0.124104  0  1.019181  0
H  H43  1  0.19328232  0.99425808  0.61248397  1  0.041669  0  0.08937  0.124084  0  1.019174  0
H  H44  1  0.66913928  0.60941911  0.89757686  1  0.084687  0  0.090527  0.12841  0  1.012403  0
H  H45  1  0.83086126  0.10242253  0.39058173  1  0.084698  0  0.090522  0.128419  0  1.012396  0
H  H46  1  0.33086009  0.39058324  0.10242168  1  0.084701  0  0.090524  0.128412  0  1.012434  0
H  H47  1  0.16914105  0.89757758  0.60941706  1  0.084686  0  0.090517  0.128391  0  1.012441  0
H  H48  1  0.62364786  0.53512752  0.96815178  1  -0.017965  0  0.081596  0.110992  0  1.043146  0
H  H49  1  0.87635191  0.03184727  0.46487263  1  -0.018  0  0.081607  0.111034  0  1.043118  0
H  H50  1  0.37635255  0.46487316  0.03184754  1  -0.018032  0  0.0816  0.110999  0  1.043121  0
H  H51  1  0.12364763  0.96815285  0.53512680  1  -0.018023  0  0.081601  0.110989  0  1.043136  0
H  H52  1  0.58210966  0.73750879  0.98390890  1  0.047277  0  0.092554  0.131466  0  0.996999  0
H  H53  1  0.91789185  0.01609171  0.26249084  1  0.047302  0  0.0925  0.131393  0  0.997103  0
H  H54  1  0.41789347  0.26249242  0.01609135  1  0.047336  0  0.092511  0.13141  0  0.997085  0
H  H55  1  0.08210757  0.98391009  0.73750724  1  0.047319  0  0.092529  0.131444  0  0.997058  0
H  H56  1  0.42998772  0.75316380  0.95098921  1  0.021723  0  0.084703  0.113002  0  1.026261  0
H  H57  1  0.07001455  0.04901123  0.24683673  1  0.021706  0  0.084632  0.112902  0  1.02625  0
H  H58  1  0.57001541  0.24683741  0.04901104  1  0.021702  0  0.084675  0.112963  0  1.026271  0
H  H59  1  0.92998583  0.95099001  0.75316195  1  0.021718  0  0.084634  0.112911  0  1.026256  0
H  H60  1  0.55605518  0.73578815  0.88751921  1  0.045011  0  0.094025  0.134517  0  0.994034  0
H  H61  1  0.94394647  0.11248205  0.26421223  1  0.045018  0  0.094027  0.134517  0  0.993969  0
H  H62  1  0.44394708  0.26421251  0.11248060  1  0.045038  0  0.094048  0.134547  0  0.994009  0
H  H63  1  0.05605483  0.88751917  0.73578753  1  0.044975  0  0.094041  0.134572  0  0.993981  0
H  H64  1  0.22798098  0.56235337  0.27892064  1  0.123718  0  0.112492  0.133193  0  0.996108  0
H  H65  1  0.27202120  0.72107716  0.43764553  1  0.123735  0  0.112484  0.1332  0  0.996122  0
H  H66  1  0.77201969  0.43764394  0.72107974  1  0.12373  0  0.11252  0.133196  0  0.996127  0
H  H67  1  0.72797753  0.27892127  0.56235640  1  0.123738  0  0.112522  0.13323  0  0.996122  0
H  H68  1  0.67274204  0.62635061  0.20513418  1  0.104637  0  0.112603  0.130937  0  0.993876  0
H  H69  1  0.82725762  0.79486540  0.37364884  1  0.104636  0  0.112597  0.130926  0  0.993894  0
H  H70  1  0.32725004  0.37366236  0.79486571  1  0.104604  0  0.112554  0.130925  0  0.993855  0
H  H71  1  0.17274945  0.20513424  0.62633500  1  0.104639  0  0.112574  0.130937  0  0.993862  0
C  C72  1  0.36538232  0.58119731  0.66134181  1  0.405375  0  0.089899  0.137705  0  4.072599  0
C  C73  1  0.13461672  0.33865751  0.41880363  1  0.405386  0  0.089948  0.13788  0  4.072494  0
C  C74  1  0.63462186  0.41880222  0.33865977  1  0.405421  0  0.08992  0.137754  0  4.07249  0
C  C75  1  0.86538019  0.66134035  0.58120010  1  0.405363  0  0.08986  0.137729  0  4.072574  0
C  C76  1  0.24030565  0.56261991  0.68106865  1  0.323131  0  0.087723  0.132274  0  4.076954  0
C  C77  1  0.25969334  0.31893068  0.43738186  1  0.323122  0  0.087641  0.132117  0  4.076939  0
C  C78  1  0.75969852  0.43737962  0.31893348  1  0.323106  0  0.087704  0.132261  0  4.07695  0
C  C79  1  0.74030358  0.68106719  0.56262077  1  0.323196  0  0.087698  0.13218  0  4.076816  0
C  C80  1  0.18895211  0.56024763  0.75333227  1  -0.005202  0  -0.086354  -0.224994  0  3.924772  0
C  C81  1  0.31104948  0.24666614  0.43975445  1  -0.00534  0  -0.086326  -0.224972  0  3.924605  0
C  C82  1  0.81105096  0.43975413  0.24666955  1  -0.00523  0  -0.086241  -0.224813  0  3.924722  0
C  C83  1  0.68895013  0.75333284  0.56024681  1  -0.005321  0  -0.086282  -0.224878  0  3.924686  0
C  C84  1  0.26593174  0.57766401  0.80707113  1  0.50947  0  0.103549  0.156737  0  4.054239  0
C  C85  1  0.23406519  0.19292899  0.42233798  1  0.509522  0  0.103536  0.156763  0  4.054099  0
C  C86  1  0.73406756  0.42233888  0.19293063  1  0.509643  0  0.103463  0.156599  0  4.054322  0
C  C87  1  0.76593359  0.80706889  0.57766293  1  0.509549  0  0.10348  0.156639  0  4.054301  0
C  C88  1  0.39308419  0.59583982  0.78710002  1  0.471065  0  0.104014  0.158229  0  4.057235  0
C  C89  1  0.10691650  0.21289957  0.40416225  1  0.471593  0  0.103982  0.158202  0  4.0574  0
C  C90  1  0.60691697  0.40416308  0.21290058  1  0.4719  0  0.104037  0.158262  0  4.057336  0
C  C91  1  0.89308215  0.78709998  0.59583841  1  0.472014  0  0.104049  0.1583  0  4.057463  0
C  C92  1  0.44336879  0.59750798  0.71373638  1  0.049163  0  -0.08692  -0.224134  0  3.925805  0
C  C93  1  0.05663021  0.28626256  0.40249410  1  0.049152  0  -0.086902  -0.224075  0  3.925744  0
C  C94  1  0.55663148  0.40249436  0.28626433  1  0.049172  0  -0.086911  -0.22403  0  3.925619  0
C  C95  1  0.94336764  0.71373531  0.59750794  1  0.049159  0  -0.086936  -0.224119  0  3.925832  0
C  C96  1  0.29068764  0.59751381  0.92777326  1  0.584876  0  0.136255  0.132427  0  3.886463  0
C  C97  1  0.20931535  0.07222596  0.40248910  1  0.585013  0  0.136227  0.132397  0  3.88657  0
C  C98  1  0.70931635  0.40248795  0.07222908  1  0.585291  0  0.136284  0.132416  0  3.88645  0
C  C99  1  0.79068799  0.92777247  0.59751157  1  0.584994  0  0.136266  0.132421  0  3.886536  0
C  C100  1  0.23056835  0.60670888  0.00412429  1  0.038266  0  -0.001905  0.11971  0  3.826311  0
C  C101  1  0.26943028  0.99587362  0.39329356  1  0.037855  0  -0.00187  0.119767  0  3.826357  0
C  C102  1  0.76943109  0.39329234  0.99587608  1  0.037884  0  -0.001879  0.119733  0  3.82632  0
C  C103  1  0.73056938  0.00412481  0.60670724  1  0.038131  0  -0.00189  0.119719  0  3.826453  0
C  C104  1  0.32575391  0.60161023  0.06342952  1  0.5822  0  0.138093  0.129422  0  3.893486  0
C  C105  1  0.17424632  0.93656959  0.39839028  1  0.581896  0  0.137993  0.129213  0  3.893382  0
C  C106  1  0.67424737  0.39839098  0.93657244  1  0.582176  0  0.138054  0.12926  0  3.893412  0
C  C107  1  0.82575151  0.06342886  0.60160837  1  0.58196  0  0.138051  0.129255  0  3.89343  0
C  C108  1  0.45311960  0.61763053  0.04357926  1  0.579288  0  0.136968  0.128853  0  3.893669  0
C  C109  1  0.04688002  0.95641957  0.38236884  1  0.579607  0  0.136997  0.128939  0  3.893688  0
C  C110  1  0.54687979  0.38237124  0.95642268  1  0.57918  0  0.13706  0.129024  0  3.893462  0
C  C111  1  0.95311971  0.04357833  0.61762818  1  0.579171  0  0.136981  0.12895  0  3.893687  0
C  C112  1  0.50355986  0.63587765  0.96326812  1  0.040447  0  -0.002508  0.123603  0  3.835308  0
C  C113  1  0.99643939  0.03673179  0.36412174  1  0.04042  0  -0.002523  0.123611  0  3.835416  0
C  C114  1  0.49643878  0.36412190  0.03673419  1  0.040411  0  -0.00251  0.123528  0  3.835452  0
C  C115  1  0.00356116  0.96326721  0.63587673  1  0.040444  0  -0.002539  0.123533  0  3.835363  0
C  C116  1  0.41790798  0.61382062  0.90820816  1  0.584958  0  0.135066  0.126455  0  3.891908  0
C  C117  1  0.08209065  0.09179056  0.38618079  1  0.58496  0  0.135058  0.126429  0  3.891832  0
C  C118  1  0.58209236  0.38618117  0.09179044  1  0.584923  0  0.13503  0.126498  0  3.891941  0
C  C119  1  0.91790809  0.90820788  0.61381893  1  0.584939  0  0.135053  0.126427  0  3.891807  0
C  C120  1  0.12856649  0.55144316  0.02794795  1  -0.021275  0  -0.245177  -0.41738  0  3.918002  0
C  C121  1  0.37143380  0.97204972  0.44855810  1  -0.021229  0  -0.245139  -0.417279  0  3.918016  0
C  C122  1  0.87143203  0.44855807  0.97205189  1  -0.021236  0  -0.245165  -0.417306  0  3.918073  0
C  C123  1  0.62856771  0.02794871  0.55144263  1  -0.021241  0  -0.245148  -0.417242  0  3.918058  0
C  C124  1  0.17003189  0.68730197  0.99585498  1  -0.04287  0  -0.232006  -0.399451  0  3.868055  0
C  C125  1  0.32996696  0.00414522  0.31269952  1  -0.042852  0  -0.232012  -0.399426  0  3.868071  0
C  C126  1  0.82996944  0.31269869  0.00414541  1  -0.042871  0  -0.231976  -0.399389  0  3.868067  0
C  C127  1  0.67003165  0.99585489  0.68730049  1  -0.042854  0  -0.232015  -0.399458  0  3.868137  0
C  C128  1  0.63135411  0.59586367  0.95512036  1  -0.045485  0  -0.245172  -0.411681  0  3.915477  0
C  C129  1  0.86864592  0.04487948  0.40413619  1  -0.045449  0  -0.245172  -0.411762  0  3.915485  0
C  C130  1  0.36864629  0.40413699  0.04488006  1  -0.045628  0  -0.245173  -0.411696  0  3.915572  0
C  C131  1  0.13135458  0.95512007  0.59586330  1  -0.045472  0  -0.245154  -0.411632  0  3.91554  0
C  C132  1  0.51844523  0.72147584  0.94518060  1  -0.061436  0  -0.234644  -0.401456  0  3.877009  0
C  C133  1  0.98155573  0.05481847  0.27852580  1  -0.06143  0  -0.234537  -0.401299  0  3.877059  0
C  C134  1  0.48155607  0.27852539  0.05481860  1  -0.06147  0  -0.234585  -0.401353  0  3.877046  0
C  C135  1  0.01844384  0.94518108  0.72147427  1  -0.061385  0  -0.234568  -0.401395  0  3.877021  0
C  C136  1  0.36612923  0.58898517  0.18852703  1  0.396372  0  0.105245  0.157965  0  4.046999  0
C  C137  1  0.13386936  0.81147297  0.41101453  1  0.396346  0  0.10525  0.157993  0  4.046945  0
C  C138  1  0.63386467  0.41101605  0.81147573  1  0.396949  0  0.105256  0.158079  0  4.046906  0
C  C139  1  0.86613503  0.18852437  0.58898132  1  0.396184  0  0.105146  0.157897  0  4.047118  0
C  C140  1  0.32352671  0.57595692  0.26390440  1  0.091255  0  -0.081181  -0.210908  0  3.9015  0
C  C141  1  0.17647281  0.73609534  0.42404226  1  0.091271  0  -0.08118  -0.210981  0  3.901512  0
C  C142  1  0.67647298  0.42404095  0.73609758  1  0.090492  0  -0.081208  -0.210924  0  3.901429  0
C  C143  1  0.82352506  0.26390256  0.57595648  1  0.091271  0  -0.081163  -0.210934  0  3.901359  0
C  C144  1  0.40799403  0.58325209  0.31658089  1  0.325422  0  0.09329  0.137321  0  4.051785  0
C  C145  1  0.09201002  0.68341648  0.41674618  1  0.325848  0  0.093218  0.137267  0  4.051862  0
C  C146  1  0.59200095  0.41674691  0.68342162  1  0.325324  0  0.093187  0.1371  0  4.051984  0
C  C147  1  0.90799532  0.31658027  0.58325248  1  0.32578  0  0.093254  0.137283  0  4.051693  0
C  C148  1  0.53272638  0.60195611  0.29598773  1  0.427799  0  0.091827  0.135621  0  4.080019  0
C  C149  1  0.96727460  0.70401128  0.39804405  1  0.427297  0  0.091882  0.135755  0  4.079924  0
C  C150  1  0.46726616  0.39805071  0.70401420  1  0.428068  0  0.09184  0.135828  0  4.079756  0
C  C151  1  0.03273162  0.29598664  0.60194670  1  0.427585  0  0.091775  0.135705  0  4.079887  0
C  C152  1  0.57775371  0.61295086  0.22220130  1  -0.035854  0  -0.086242  -0.227406  0  3.943941  0
C  C153  1  0.92224723  0.77779760  0.38704763  1  -0.035804  0  -0.086291  -0.227491  0  3.944022  0
C  C154  1  0.42223945  0.38705986  0.77780055  1  -0.035908  0  -0.086112  -0.227331  0  3.943897  0
C  C155  1  0.07775714  0.22220091  0.61293923  1  -0.035853  0  -0.086128  -0.227326  0  3.944096  0
C  C156  1  0.49332172  0.60687366  0.16818402  1  0.511868  0  0.105809  0.161587  0  4.056603  0
C  C157  1  0.00667837  0.83181570  0.39312379  1  0.511902  0  0.105839  0.161651  0  4.056436  0
C  C158  1  0.50667178  0.39313259  0.83181851  1  0.511537  0  0.105695  0.161275  0  4.056827  0
C  C159  1  0.99332695  0.16818223  0.60686588  1  0.511515  0  0.10576  0.161375  0  4.056783  0
N  N160  1  0.38554637  0.57785562  0.58657743  1  -0.685929  0  -0.293436  -0.205526  0  3.605858  0
N  N161  1  0.11445159  0.41342238  0.42214485  1  -0.685972  0  -0.293437  -0.205636  0  3.605992  0
N  N162  1  0.61445692  0.42214336  0.41342426  1  -0.685906  0  -0.293369  -0.205471  0  3.605746  0
N  N163  1  0.88554442  0.58657550  0.57785725  1  -0.685916  0  -0.29334  -0.205449  0  3.605811  0
N  N164  1  0.27996582  0.55783890  0.56217081  1  -0.199257  0  -0.16694  0.000709  0  3.642685  0
N  N165  1  0.22003294  0.43782844  0.44216112  1  -0.199225  0  -0.166937  0.000776  0  3.642658  0
N  N166  1  0.72003659  0.44215951  0.43783210  1  -0.199436  0  -0.166989  0.000568  0  3.642832  0
N  N167  1  0.77996403  0.56216887  0.55784049  1  -0.199519  0  -0.166975  0.000605  0  3.642768  0
N  N168  1  0.19104912  0.54887383  0.61689519  1  -0.713646  0  -0.3003  -0.222255  0  3.673385  0
N  N169  1  0.30895007  0.38310367  0.45112551  1  -0.713618  0  -0.300236  -0.222213  0  3.673389  0
N  N170  1  0.80895333  0.45112402  0.38310836  1  -0.713796  0  -0.300328  -0.222269  0  3.673396  0
N  N171  1  0.69104783  0.61689365  0.54887551  1  -0.713469  0  -0.300275  -0.222165  0  3.673301  0
N  N172  1  0.21884181  0.57924249  0.87830871  1  -1.175866  0  -0.299343  -0.28918  0  3.288523  0
N  N173  1  0.28115788  0.12169005  0.42076000  1  -1.175879  0  -0.299344  -0.289213  0  3.288442  0
N  N174  1  0.78115841  0.42076040  0.12169302  1  -1.176081  0  -0.2994  -0.28922  0  3.28847  0
N  N175  1  0.71884266  0.87830894  0.57924013  1  -1.175856  0  -0.299352  -0.289167  0  3.288441  0
N  N176  1  0.46591906  0.61262993  0.84008560  1  -1.193217  0  -0.300885  -0.289334  0  3.306542  0
N  N177  1  0.03408013  0.15991451  0.38737147  1  -1.193675  0  -0.300861  -0.289335  0  3.306567  0
N  N178  1  0.53408109  0.38737409  0.15991431  1  -1.193925  0  -0.300908  -0.289448  0  3.306669  0
N  N179  1  0.96591949  0.84008449  0.61262758  1  -1.194136  0  -0.300881  -0.289357  0  3.306595  0
N  N180  1  0.28554166  0.58703690  0.13389878  1  -1.18043  0  -0.29858  -0.288584  0  3.286547  0
N  N181  1  0.21445961  0.86609843  0.41296283  1  -1.180142  0  -0.298483  -0.288413  0  3.286299  0
N  N182  1  0.71445889  0.41296210  0.86610025  1  -1.180214  0  -0.298501  -0.288402  0  3.286239  0
N  N183  1  0.78554094  0.13390057  0.58703619  1  -1.180106  0  -0.298469  -0.288338  0  3.286302  0
N  N184  1  0.53276917  0.61974953  0.09485923  1  -1.187028  0  -0.299733  -0.28548  0  3.311667  0
N  N185  1  0.96723186  0.90514294  0.38024881  1  -1.187059  0  -0.299758  -0.285543  0  3.311629  0
N  N186  1  0.46722801  0.38025670  0.90514484  1  -1.186819  0  -0.299751  -0.285444  0  3.311537  0
N  N187  1  0.03277156  0.09485555  0.61974139  1  -1.186777  0  -0.299754  -0.285474  0  3.311642  0
N  N188  1  0.39462589  0.57650910  0.39302035  1  -0.661528  0  -0.259969  -0.190344  0  3.539981  0
N  N189  1  0.10537562  0.60697820  0.42349079  1  -0.66133  0  -0.259903  -0.190306  0  3.540036  0
N  N190  1  0.60537291  0.42348820  0.60698340  1  -0.661213  0  -0.259922  -0.190341  0  3.539944  0
N  N191  1  0.89462508  0.39301855  0.57651133  1  -0.661328  0  -0.259975  -0.19042  0  3.540007  0
N  N192  1  0.50236711  0.59055211  0.41755503  1  -0.178617  0  -0.163986  0.002755  0  3.65342  0
N  N193  1  0.99763450  0.58244301  0.40944817  1  -0.178838  0  -0.163966  0.00284  0  3.653407  0
N  N194  1  0.49763148  0.40944799  0.58244719  1  -0.17893  0  -0.16397  0.002827  0  3.653392  0
N  N195  1  0.00236621  0.41755375  0.59055230  1  -0.178966  0  -0.163995  0.002765  0  3.653391  0
N  N196  1  0.58813504  0.60584229  0.36102070  1  -0.715128  0  -0.309741  -0.201915  0  3.672389  0
N  N197  1  0.91186685  0.63897708  0.39415666  1  -0.715165  0  -0.309735  -0.201976  0  3.672461  0
N  N198  1  0.41185961  0.39416118  0.63898003  1  -0.714953  0  -0.309768  -0.202031  0  3.672371  0
N  N199  1  0.08813755  0.36102027  0.60583809  1  -0.714885  0  -0.309685  -0.201883  0  3.672236  0
