# generated using pymatgen
data_ZnH24C39S2N2(O2F3)2
_symmetry_space_group_name_H-M   'P 1'
_cell_length_a   7.10601715
_cell_length_b   24.77552864
_cell_length_c   29.18926409
_cell_angle_alpha   90.00018421
_cell_angle_beta   90.00043293
_cell_angle_gamma   89.99983824
_symmetry_Int_Tables_number   1
_chemical_formula_structural   ZnH24C39S2N2(O2F3)2
_chemical_formula_sum   'Zn4 H96 C156 S8 N8 O16 F24'
_cell_volume   5138.92556115
_cell_formula_units_Z   4
loop_
 _symmetry_equiv_pos_site_id
 _symmetry_equiv_pos_as_xyz
  1  'x, y, z'
loop_
 _atom_site_type_symbol
 _atom_site_label
 _atom_site_symmetry_multiplicity
 _atom_site_fract_x
 _atom_site_fract_y
 _atom_site_fract_z
 _atom_site_occupancy
 _atom_site_pbe_bader_charge
 _atom_site_pbe_bader_spin_density
 _atom_site_pbe_cm5_charge
 _atom_site_pbe_ddec_charge
 _atom_site_pbe_ddec_spin_density
 _atom_site_pbe_ddec_sum_bond_order
 _atom_site_pbe_magmom
Zn  Zn0  1  0.41040145  0.03861836  0.73433309  1  1.246998  0  0.691209  0.748932  0  2.447254  0
Zn  Zn1  1  0.08959481  0.96138131  0.23433104  1  1.246969  0  0.691156  0.748895  0  2.447265  0
Zn  Zn2  1  0.91040355  0.46138161  0.26566935  1  1.247022  0  0.691193  0.748954  0  2.447202  0
Zn  Zn3  1  0.58960112  0.53861737  0.76566635  1  1.247025  0  0.691235  0.749004  0  2.447234  0
H  H4  1  0.28270578  0.93349666  0.76733400  1  0.162241  0  0.120258  0.102269  0  1.006285  0
H  H5  1  0.21729151  0.06650435  0.26733351  1  0.162182  0  0.120231  0.102237  0  1.006306  0
H  H6  1  0.78271355  0.56650388  0.23266512  1  0.162119  0  0.120255  0.102265  0  1.006317  0
H  H7  1  0.71729995  0.43349376  0.73266515  1  0.15992  0  0.120227  0.102251  0  1.006361  0
H  H8  1  0.39824111  0.81942262  0.69549521  1  0.050534  0  0.096373  0.096172  0  1.028822  0
H  H9  1  0.10174550  0.18057892  0.19549276  1  0.050578  0  0.096381  0.096225  0  1.028783  0
H  H10  1  0.89824718  0.68057863  0.30450515  1  0.050509  0  0.096369  0.096202  0  1.028882  0
H  H11  1  0.60175026  0.31942494  0.80450671  1  0.050493  0  0.096378  0.096221  0  1.028807  0
H  H12  1  0.20900634  0.83521119  0.01647828  1  0.114986  0  0.101436  0.123259  0  1.035306  0
H  H13  1  0.29099441  0.16478927  0.51647771  1  0.114938  0  0.101452  0.123272  0  1.03542  0
H  H14  1  0.70899848  0.66478981  0.98352344  1  0.115063  0  0.10147  0.123341  0  1.035263  0
H  H15  1  0.79099748  0.33521161  0.48352314  1  0.114959  0  0.10145  0.123303  0  1.035375  0
H  H16  1  0.47461429  0.96463307  0.18987362  1  0.13952  0  0.119287  0.093098  0  1.022231  0
H  H17  1  0.02538903  0.03536765  0.68987358  1  0.13959  0  0.119293  0.093082  0  1.022245  0
H  H18  1  0.97461497  0.53536812  0.81012688  1  0.139555  0  0.119267  0.093058  0  1.022287  0
H  H19  1  0.52538545  0.46463103  0.31012576  1  0.139568  0  0.119289  0.093091  0  1.022218  0
H  H20  1  0.60746435  0.87729709  0.74929608  1  0.085144  0  0.09786  0.098478  0  1.027967  0
H  H21  1  0.89252011  0.12269981  0.24929641  1  0.084588  0  0.097811  0.098441  0  1.027934  0
H  H22  1  0.10746750  0.62269915  0.25070751  1  0.085324  0  0.097802  0.098422  0  1.027926  0
H  H23  1  0.39253208  0.37729493  0.75070257  1  0.084812  0  0.097867  0.098507  0  1.027964  0
H  H24  1  0.79066495  0.05743694  0.82158541  1  0.105695  0  0.109164  0.126356  0  1.007923  0
H  H25  1  0.70932879  0.94256346  0.32158558  1  0.105756  0  0.10921  0.126376  0  1.007945  0
H  H26  1  0.29066694  0.44256434  0.17841544  1  0.105765  0  0.109182  0.126363  0  1.007948  0
H  H27  1  0.20932899  0.55743633  0.67841545  1  0.105771  0  0.109186  0.126392  0  1.007991  0
H  H28  1  0.13381055  0.64464795  0.74785919  1  0.098912  0  0.100887  0.105824  0  1.018827  0
H  H29  1  0.36619598  0.35535056  0.24785805  1  0.09887  0  0.100921  0.105884  0  1.018771  0
H  H30  1  0.63380201  0.85535109  0.25214034  1  0.098651  0  0.100922  0.105907  0  1.018828  0
H  H31  1  0.86618535  0.14464985  0.75214157  1  0.099001  0  0.100885  0.105795  0  1.018769  0
H  H32  1  0.81103882  0.79654274  0.75735631  1  0.066104  0  0.099257  0.100405  0  1.021743  0
H  H33  1  0.68895152  0.20345863  0.25735649  1  0.066231  0  0.099162  0.100233  0  1.0216  0
H  H34  1  0.31103671  0.70345656  0.24264525  1  0.066099  0  0.099195  0.100275  0  1.021578  0
H  H35  1  0.18895418  0.29654031  0.74264349  1  0.066154  0  0.099226  0.100343  0  1.02163  0
H  H36  1  0.92029695  0.72108876  0.73484838  1  0.121148  0  0.097818  0.107263  0  1.042223  0
H  H37  1  0.57969972  0.27890889  0.23484548  1  0.121162  0  0.097868  0.107264  0  1.042196  0
H  H38  1  0.42029902  0.77891005  0.26515270  1  0.121149  0  0.097819  0.107264  0  1.042252  0
H  H39  1  0.07969538  0.22108974  0.76515464  1  0.121228  0  0.097852  0.107295  0  1.042158  0
H  H40  1  0.98706472  0.94396091  0.65027176  1  0.09802  0  0.099798  0.099775  0  1.016237  0
H  H41  1  0.51291948  0.05603521  0.15027018  1  0.098649  0  0.099773  0.099773  0  1.016231  0
H  H42  1  0.48709412  0.55603583  0.34973082  1  0.098491  0  0.099751  0.099732  0  1.016248  0
H  H43  1  0.01294090  0.44396347  0.84972639  1  0.097994  0  0.099781  0.099756  0  1.016284  0
H  H44  1  0.01037685  0.89452169  0.80916003  1  0.072167  0  0.105084  0.113681  0  1.021945  0
H  H45  1  0.48962455  0.10547947  0.30916015  1  0.072149  0  0.105063  0.113675  0  1.021973  0
H  H46  1  0.51037872  0.60547825  0.19083995  1  0.072165  0  0.105074  0.113685  0  1.021974  0
H  H47  1  0.98963629  0.39452044  0.69084038  1  0.07215  0  0.105065  0.113697  0  1.021994  0
H  H48  1  0.08454572  0.08930973  0.78292299  1  0.187823  0  0.121415  0.103991  0  1.027313  0
H  H49  1  0.41545205  0.91068931  0.28292140  1  0.187814  0  0.121428  0.103945  0  1.027286  0
H  H50  1  0.58454962  0.41069091  0.21707783  1  0.187841  0  0.121416  0.10396  0  1.027335  0
H  H51  1  0.91544651  0.58930950  0.71707762  1  0.187855  0  0.121387  0.103964  0  1.027237  0
H  H52  1  0.61905994  0.93386824  0.11929331  1  0.118358  0  0.107648  0.128255  0  1.018239  0
H  H53  1  0.88094581  0.06613462  0.61929298  1  0.118445  0  0.107639  0.12823  0  1.018323  0
H  H54  1  0.11905789  0.56613646  0.88070757  1  0.118397  0  0.107633  0.128201  0  1.018324  0
H  H55  1  0.38094291  0.43386376  0.38070564  1  0.118418  0  0.107608  0.128213  0  1.018364  0
H  H56  1  0.73509555  0.86441310  0.83117766  1  0.099459  0  0.11156  0.131728  0  1.00744  0
H  H57  1  0.76489709  0.13558653  0.33117813  1  0.099493  0  0.111591  0.13177  0  1.007437  0
H  H58  1  0.23509744  0.63558707  0.16882309  1  0.099415  0  0.111588  0.131775  0  1.007484  0
H  H59  1  0.26491227  0.36441276  0.66882370  1  0.099468  0  0.111519  0.13166  0  1.007482  0
H  H60  1  0.95350820  0.90077221  0.15472509  1  0.119421  0  0.121413  0.097871  0  0.99174  0
H  H61  1  0.54649865  0.09922716  0.65472766  1  0.119581  0  0.121464  0.097919  0  0.991637  0
H  H62  1  0.45350191  0.59922698  0.84527195  1  0.119394  0  0.121429  0.097864  0  0.991715  0
H  H63  1  0.04649639  0.40077231  0.34527480  1  0.119377  0  0.121456  0.097928  0  0.991737  0
H  H64  1  0.19082171  0.86286267  0.65668937  1  0.059928  0  0.102381  0.104616  0  1.001033  0
H  H65  1  0.30916932  0.13713468  0.15668548  1  0.060516  0  0.102361  0.104623  0  1.000985  0
H  H66  1  0.69083926  0.63713592  0.34331266  1  0.060519  0  0.102371  0.104606  0  1.000978  0
H  H67  1  0.80917767  0.36286739  0.84331164  1  0.059462  0  0.102375  0.104635  0  1.000999  0
H  H68  1  0.60712802  0.74053464  0.70675046  1  0.107911  0  0.099721  0.100768  0  1.026148  0
H  H69  1  0.89286497  0.25946775  0.20675013  1  0.107814  0  0.099682  0.100665  0  1.026123  0
H  H70  1  0.10712975  0.75946685  0.29324834  1  0.107897  0  0.099678  0.10074  0  1.026197  0
H  H71  1  0.39286412  0.24053627  0.79325090  1  0.107779  0  0.099715  0.10069  0  1.026114  0
H  H72  1  0.17477164  0.91150877  0.92474757  1  0.048196  0  0.09291  0.1353  0  1.014989  0
H  H73  1  0.32522773  0.08849243  0.42474700  1  0.048123  0  0.092912  0.135344  0  1.014984  0
H  H74  1  0.67477289  0.58849266  0.07525272  1  0.048152  0  0.092908  0.135325  0  1.014906  0
H  H75  1  0.82523431  0.41150883  0.57525289  1  0.048124  0  0.092905  0.135337  0  1.01498  0
H  H76  1  0.18797124  0.98253286  0.91668547  1  0.060965  0  0.100434  0.147346  0  0.974781  0
H  H77  1  0.31203490  0.01746911  0.41668502  1  0.060678  0  0.100416  0.147277  0  0.974787  0
H  H78  1  0.68797063  0.51746855  0.08331279  1  0.060812  0  0.100437  0.147272  0  0.974839  0
H  H79  1  0.81203400  0.48253296  0.58331382  1  0.060743  0  0.10044  0.147303  0  0.974738  0
H  H80  1  0.31665881  0.95112893  0.96162432  1  0.082541  0  0.097354  0.143366  0  0.988233  0
H  H81  1  0.18334592  0.04887241  0.46162407  1  0.082711  0  0.097377  0.143381  0  0.988185  0
H  H82  1  0.81666213  0.54887360  0.03837554  1  0.08255  0  0.097359  0.143336  0  0.988285  0
H  H83  1  0.68334252  0.45112654  0.53837624  1  0.0827  0  0.097379  0.14339  0  0.988266  0
H  H84  1  0.07870637  0.86396595  0.08175151  1  0.063762  0  0.094798  0.101535  0  1.056532  0
H  H85  1  0.42130344  0.13603314  0.58175282  1  0.063765  0  0.094793  0.101527  0  1.056571  0
H  H86  1  0.57869536  0.63603354  0.91824620  1  0.063754  0  0.094805  0.101521  0  1.056612  0
H  H87  1  0.92129998  0.36396722  0.41824896  1  0.063714  0  0.094812  0.101562  0  1.056569  0
H  H88  1  0.81504926  0.82236814  0.93051934  1  0.059807  0  0.096549  0.149997  0  0.98618  0
H  H89  1  0.68495209  0.17763267  0.43052012  1  0.059807  0  0.096532  0.149955  0  0.986186  0
H  H90  1  0.31505328  0.67763075  0.06947881  1  0.059898  0  0.096555  0.150006  0  0.986205  0
H  H91  1  0.18495334  0.32237031  0.56947985  1  0.059876  0  0.096518  0.149942  0  0.986281  0
H  H92  1  0.95008035  0.85804611  0.97169903  1  0.045638  0  0.089295  0.130302  0  1.016029  0
H  H93  1  0.54992790  0.14195203  0.47169639  1  0.045913  0  0.089257  0.130283  0  1.016147  0
H  H94  1  0.45007360  0.64194985  0.02830211  1  0.045836  0  0.089268  0.130277  0  1.016126  0
H  H95  1  0.04992048  0.35804985  0.52830231  1  0.045885  0  0.089237  0.130198  0  1.016086  0
H  H96  1  0.82648143  0.89381565  0.92826313  1  0.059444  0  0.092776  0.13639  0  1.018543  0
H  H97  1  0.67352407  0.10618515  0.42826130  1  0.059427  0  0.092784  0.136374  0  1.018561  0
H  H98  1  0.32647779  0.60618323  0.07173778  1  0.059415  0  0.092766  0.136373  0  1.018557  0
H  H99  1  0.17352609  0.39381703  0.57173865  1  0.059365  0  0.092786  0.136376  0  1.018527  0
C  C100  1  0.78599659  0.91609044  0.69987059  1  -0.052759  0  -0.026991  -0.04587  0  3.991436  0
C  C101  1  0.71398211  0.08390748  0.19987254  1  -0.052714  0  -0.027045  -0.045896  0  3.991658  0
C  C102  1  0.28601574  0.58390727  0.30013093  1  -0.052826  0  -0.027048  -0.045805  0  3.99148  0
C  C103  1  0.21400227  0.41609184  0.80012645  1  -0.053177  0  -0.026923  -0.04583  0  3.991413  0
C  C104  1  0.44090168  0.87676304  0.05001999  1  -0.198614  0  -0.020062  -0.024862  0  4.038837  0
C  C105  1  0.05910574  0.12323714  0.55001991  1  -0.19855  0  -0.020104  -0.024903  0  4.038693  0
C  C106  1  0.94089459  0.62323696  0.94998147  1  -0.198486  0  -0.020024  -0.024874  0  4.038552  0
C  C107  1  0.55910314  0.37676231  0.44998017  1  -0.198587  0  -0.020067  -0.024766  0  4.038754  0
C  C108  1  0.51132706  0.64054453  0.73597433  1  1.563999  0  0.192429  0.557931  0  4.237124  0
C  C109  1  0.98867528  0.35945514  0.23597480  1  1.564007  0  0.192396  0.557831  0  4.237233  0
C  C110  1  0.01132268  0.85945501  0.26402360  1  1.564016  0  0.192448  0.557925  0  4.23712  0
C  C111  1  0.48866747  0.14054598  0.76402710  1  1.563984  0  0.192416  0.557683  0  4.23714  0
C  C112  1  0.17116377  0.95906914  0.78094510  1  0.405183  0  0.044612  0.088968  0  3.947751  0
C  C113  1  0.32883394  0.04093192  0.28094372  1  0.404975  0  0.044642  0.089094  0  3.947775  0
C  C114  1  0.67116997  0.54093108  0.21905415  1  0.405232  0  0.044551  0.088894  0  3.947868  0
C  C115  1  0.82883748  0.45906812  0.71905446  1  0.407338  0  0.044694  0.089038  0  3.947941  0
C  C116  1  0.40939593  0.81646894  0.93299315  1  0.023281  0  -0.00764  -0.071014  0  3.941935  0
C  C117  1  0.09059806  0.18353309  0.43299241  1  0.023333  0  -0.007681  -0.070889  0  3.941499  0
C  C118  1  0.90939740  0.68353109  0.06700723  1  0.02332  0  -0.007597  -0.070883  0  3.941668  0
C  C119  1  0.59060673  0.31646875  0.56700670  1  0.023347  0  -0.00764  -0.070902  0  3.94174  0
C  C120  1  0.50361204  0.88959055  0.87724236  1  0.039322  0  -0.032207  0.00394  0  4.066507  0
C  C121  1  0.99638625  0.11041047  0.37724148  1  0.039118  0  -0.032168  0.003991  0  4.066545  0
C  C122  1  0.00361275  0.61041062  0.12275967  1  0.039318  0  -0.032187  0.003899  0  4.066377  0
C  C123  1  0.49639271  0.38958944  0.62276044  1  0.039472  0  -0.032184  0.003848  0  4.066519  0
C  C124  1  0.43218148  0.83638689  0.88987358  1  -0.016176  0  -0.003679  -0.062617  0  3.936128  0
C  C125  1  0.06781257  0.16361337  0.38987308  1  -0.016032  0  -0.003701  -0.062699  0  3.93627  0
C  C126  1  0.93218168  0.66361312  0.11012821  1  -0.016046  0  -0.003716  -0.06265  0  3.936212  0
C  C127  1  0.56782379  0.33638769  0.61012770  1  -0.01621  0  -0.003685  -0.062591  0  3.936227  0
C  C128  1  0.33782506  0.78092097  0.70606337  1  0.023645  0  -0.09673  -0.138915  0  3.990521  0
C  C129  1  0.16216469  0.21907900  0.20606183  1  0.023555  0  -0.096855  -0.139213  0  3.990765  0
C  C130  1  0.83782761  0.71907912  0.29393688  1  0.024511  0  -0.096815  -0.139111  0  3.990901  0
C  C131  1  0.66216528  0.28092360  0.79393639  1  0.024442  0  -0.096779  -0.139178  0  3.99068  0
C  C132  1  0.71184037  0.95093642  0.84326165  1  -0.173762  0  -0.014231  -0.019824  0  4.025667  0
C  C133  1  0.78815686  0.04906326  0.34326124  1  -0.173679  0  -0.014195  -0.019715  0  4.025598  0
C  C134  1  0.21184274  0.54906377  0.15673871  1  -0.173731  0  -0.014233  -0.019834  0  4.025605  0
C  C135  1  0.28816518  0.45093641  0.65673926  1  -0.173762  0  -0.014273  -0.019928  0  4.02577  0
C  C136  1  0.43193900  0.93796092  0.89439216  1  -0.167882  0  -0.002311  0.056702  0  3.934343  0
C  C137  1  0.06806364  0.06203936  0.39439070  1  -0.168097  0  -0.00229  0.05672  0  3.934142  0
C  C138  1  0.93193584  0.56203828  0.10560894  1  -0.16822  0  -0.002297  0.056716  0  3.934071  0
C  C139  1  0.56807371  0.43796211  0.60560974  1  -0.168273  0  -0.002347  0.056715  0  3.933993  0
C  C140  1  0.32196464  0.76126047  0.93197755  1  1.097302  0  0.193634  0.354203  0  3.982391  0
C  C141  1  0.17802368  0.23874157  0.43197678  1  1.097316  0  0.193508  0.354091  0  3.982108  0
C  C142  1  0.82197827  0.73874044  0.06802301  1  1.09717  0  0.193595  0.354222  0  3.982073  0
C  C143  1  0.67803292  0.26126061  0.56802215  1  1.097323  0  0.193593  0.354107  0  3.982612  0
C  C144  1  0.38356878  0.68754336  0.72779490  1  -0.012033  0  -0.025924  -0.041357  0  3.995009  0
C  C145  1  0.11643009  0.31245588  0.22779387  1  -0.012006  0  -0.025931  -0.041344  0  3.994962  0
C  C146  1  0.88356692  0.81245669  0.27220371  1  -0.012494  0  -0.025936  -0.04131  0  3.995008  0
C  C147  1  0.61642107  0.18754595  0.77220529  1  -0.012098  0  -0.025906  -0.041172  0  3.994794  0
C  C148  1  0.35375400  0.84918863  0.01479425  1  -0.027066  0  -0.102017  -0.193099  0  3.984926  0
C  C149  1  0.14625092  0.15081223  0.51479407  1  -0.027044  0  -0.102058  -0.193117  0  3.985004  0
C  C150  1  0.85375055  0.65081387  0.98520671  1  -0.027281  0  -0.102145  -0.193247  0  3.985013  0
C  C151  1  0.64624687  0.34918796  0.48520618  1  -0.027085  0  -0.102043  -0.193175  0  3.985004  0
C  C152  1  0.47093868  0.84161115  0.97571272  1  0.033642  0  -0.032599  0.011256  0  4.050285  0
C  C153  1  0.02906368  0.15838944  0.47571213  1  0.033683  0  -0.032631  0.011087  0  4.05026  0
C  C154  1  0.97092922  0.65838722  0.02428709  1  0.033651  0  -0.032566  0.011276  0  4.0503  0
C  C155  1  0.52906373  0.34161165  0.52428789  1  0.033577  0  -0.032643  0.011144  0  4.050423  0
C  C156  1  0.67259947  0.96706134  0.69890342  1  1.558299  0  0.194386  0.567625  0  4.230551  0
C  C157  1  0.82738202  0.03293657  0.19890510  1  1.557776  0  0.194353  0.56742  0  4.230434  0
C  C158  1  0.17261352  0.53293686  0.30109960  1  1.557882  0  0.194455  0.567316  0  4.230367  0
C  C159  1  0.32739889  0.46706105  0.80109410  1  1.558236  0  0.194384  0.567716  0  4.230522  0
C  C160  1  0.38970147  0.94221335  0.16532065  1  0.477798  0  0.055018  0.111975  0  3.925175  0
C  C161  1  0.11030390  0.05778848  0.66532014  1  0.477647  0  0.055058  0.112074  0  3.925288  0
C  C162  1  0.88969707  0.55778750  0.83467935  1  0.477658  0  0.05506  0.112126  0  3.925241  0
C  C163  1  0.61029989  0.44221012  0.33467901  1  0.47737  0  0.055069  0.11214  0  3.92509  0
C  C164  1  0.73573000  0.87359899  0.72912268  1  -0.033317  0  -0.091633  -0.095644  0  4.011853  0
C  C165  1  0.76424680  0.12639743  0.22912313  1  -0.032865  0  -0.091573  -0.095621  0  4.01177  0
C  C166  1  0.23574641  0.62639674  0.27088046  1  -0.033114  0  -0.09156  -0.09562  0  4.011599  0
C  C167  1  0.26426506  0.37359863  0.77087527  1  -0.032802  0  -0.091672  -0.095768  0  4.011932  0
C  C168  1  0.87478068  0.97269124  0.81955003  1  -0.036713  0  0.009995  0.122092  0  4.02791  0
C  C169  1  0.62522004  0.02730915  0.31954961  1  -0.036829  0  0.010041  0.122179  0  4.027926  0
C  C170  1  0.37478259  0.52731003  0.18045029  1  -0.036699  0  0.010029  0.122187  0  4.027843  0
C  C171  1  0.12522607  0.47269065  0.68044991  1  -0.036811  0  0.010052  0.122212  0  4.027922  0
C  C172  1  0.89829907  0.02828715  0.81180242  1  -0.03714  0  -0.081603  -0.16532  0  3.914832  0
C  C173  1  0.60169577  0.97171362  0.31180248  1  -0.037261  0  -0.081708  -0.165458  0  3.914889  0
C  C174  1  0.39830530  0.47171364  0.18819760  1  -0.037352  0  -0.081681  -0.165456  0  3.914794  0
C  C175  1  0.10169656  0.52828706  0.68819734  1  -0.03721  0  -0.081647  -0.165401  0  3.914892  0
C  C176  1  0.18974024  0.68303578  0.73587098  1  -0.079817  0  -0.090521  -0.087858  0  3.980212  0
C  C177  1  0.31026170  0.31696349  0.23586860  1  -0.07977  0  -0.090582  -0.088007  0  3.979997  0
C  C178  1  0.68973527  0.81696442  0.26412900  1  -0.079466  0  -0.090604  -0.088056  0  3.980234  0
C  C179  1  0.81024825  0.18303818  0.76413091  1  -0.080266  0  -0.09065  -0.08804  0  3.979913  0
C  C180  1  0.01846877  0.82388083  0.70819234  1  -0.049017  0  -0.004386  0.077038  0  3.989927  0
C  C181  1  0.48152246  0.17611713  0.20819024  1  -0.050217  0  -0.004471  0.076993  0  3.989923  0
C  C182  1  0.51847167  0.67611750  0.29180937  1  -0.050019  0  -0.004496  0.076894  0  3.990003  0
C  C183  1  0.98152818  0.32388319  0.79180753  1  -0.04999  0  -0.00439  0.076987  0  3.990085  0
C  C184  1  0.85016710  0.82840516  0.73339793  1  -0.059621  0  -0.094551  -0.143491  0  3.986786  0
C  C185  1  0.64981546  0.17159248  0.23339726  1  -0.059316  0  -0.09442  -0.143236  0  3.986554  0
C  C186  1  0.35017731  0.67159289  0.26660474  1  -0.059571  0  -0.094418  -0.143248  0  3.986484  0
C  C187  1  0.14981995  0.32840649  0.76660230  1  -0.059454  0  -0.094519  -0.143372  0  3.986712  0
C  C188  1  0.65201761  0.86202720  0.98232253  1  -0.183983  0  -0.001961  0.063444  0  3.924053  0
C  C189  1  0.84799098  0.13797300  0.48232282  1  -0.183689  0  -0.001939  0.063468  0  3.923927  0
C  C190  1  0.15201056  0.63797223  0.01767737  1  -0.184112  0  -0.001976  0.063398  0  3.92399  0
C  C191  1  0.34799163  0.36202823  0.51767779  1  -0.183681  0  -0.001937  0.063464  0  3.924017  0
C  C192  1  0.14294107  0.77674072  0.71418569  1  -0.061821  0  -0.011741  0.063023  0  4.008618  0
C  C193  1  0.35705175  0.22325725  0.21418383  1  -0.061422  0  -0.011633  0.063121  0  4.008745  0
C  C194  1  0.64294895  0.72325710  0.28581557  1  -0.061433  0  -0.011651  0.063142  0  4.008642  0
C  C195  1  0.85705775  0.27674317  0.78581543  1  -0.061479  0  -0.011636  0.063239  0  4.008867  0
C  C196  1  0.36233364  0.89515711  0.09328962  1  -0.073527  0  0.00712  0.12367  0  4.036792  0
C  C197  1  0.13767372  0.10484323  0.59329032  1  -0.073478  0  0.007159  0.123707  0  4.036651  0
C  C198  1  0.86232538  0.60484416  0.90670896  1  -0.073375  0  0.0071  0.123655  0  4.036743  0
C  C199  1  0.63766819  0.39515535  0.40670991  1  -0.073449  0  0.00712  0.123666  0  4.036875  0
C  C200  1  0.07068166  0.72682136  0.72911605  1  -0.089171  0  -0.094176  -0.133923  0  3.964218  0
C  C201  1  0.42931866  0.27317667  0.22911411  1  -0.089038  0  -0.094265  -0.133912  0  3.964103  0
C  C202  1  0.57068155  0.77317773  0.27088439  1  -0.089099  0  -0.09416  -0.133867  0  3.964087  0
C  C203  1  0.92931202  0.22682369  0.77088391  1  -0.089059  0  -0.094264  -0.13404  0  3.964274  0
C  C204  1  0.95018241  0.91131020  0.67363712  1  -0.030947  0  -0.08834  -0.091778  0  4.003109  0
C  C205  1  0.54980110  0.08868681  0.17363536  1  -0.031558  0  -0.088271  -0.091792  0  4.00313  0
C  C206  1  0.45020514  0.58868777  0.32636539  1  -0.031563  0  -0.088296  -0.091814  0  4.003252  0
C  C207  1  0.04981368  0.41131345  0.82636163  1  -0.030981  0  -0.088382  -0.091794  0  4.00305  0
C  C208  1  0.01801093  0.93793872  0.80399896  1  0.075154  0  -0.082798  -0.165463  0  3.936057  0
C  C209  1  0.48199171  0.06206202  0.30399826  1  0.075546  0  -0.082777  -0.165552  0  3.936135  0
C  C210  1  0.51801339  0.56206123  0.19600105  1  0.075129  0  -0.082775  -0.165488  0  3.936111  0
C  C211  1  0.98200038  0.43793830  0.69600123  1  0.075477  0  -0.082798  -0.165539  0  3.93608  0
C  C212  1  0.05795025  0.04658696  0.78932903  1  0.466618  0  0.050153  0.09494  0  3.927378  0
C  C213  1  0.44204771  0.95341332  0.28932795  1  0.466899  0  0.050209  0.095125  0  3.927197  0
C  C214  1  0.55795495  0.45341330  0.21067105  1  0.466863  0  0.050238  0.095115  0  3.927242  0
C  C215  1  0.94204520  0.54658547  0.71067078  1  0.46677  0  0.050223  0.095017  0  3.92715  0
C  C216  1  0.47138945  0.92404007  0.12508947  1  0.009076  0  -0.084901  -0.175794  0  3.917306  0
C  C217  1  0.02861749  0.07596121  0.62508852  1  0.009266  0  -0.084857  -0.175762  0  3.917411  0
C  C218  1  0.97138753  0.57596274  0.87491103  1  0.009223  0  -0.084832  -0.175764  0  3.917405  0
C  C219  1  0.52861068  0.42403625  0.37491014  1  0.009538  0  -0.084832  -0.175849  0  3.917495  0
C  C220  1  0.66012819  0.89745383  0.84758504  1  -0.02004  0  -0.095246  -0.18638  0  3.978027  0
C  C221  1  0.83986918  0.10254707  0.34758556  1  -0.020108  0  -0.095335  -0.18654  0  3.978117  0
C  C222  1  0.16013130  0.60254721  0.15241557  1  -0.020021  0  -0.095287  -0.186443  0  3.978023  0
C  C223  1  0.33988352  0.39745417  0.65241607  1  -0.020064  0  -0.095193  -0.186226  0  3.978131  0
C  C224  1  0.37624121  0.79549811  0.85416925  1  1.131562  0  0.195306  0.355687  0  3.989591  0
C  C225  1  0.12375455  0.20450241  0.35416862  1  1.131533  0  0.195311  0.355675  0  3.989748  0
C  C226  1  0.87624774  0.70450235  0.14583210  1  1.131635  0  0.195294  0.355706  0  3.989836  0
C  C227  1  0.62375461  0.29549860  0.64583192  1  1.131542  0  0.19528  0.35574  0  3.990019  0
C  C228  1  0.10067445  0.90604790  0.14526844  1  0.550844  0  0.053005  0.11022  0  3.933656  0
C  C229  1  0.39933171  0.09395062  0.64526959  1  0.550572  0  0.052958  0.110231  0  3.933497  0
C  C230  1  0.60066891  0.59395036  0.85473172  1  0.55085  0  0.052958  0.110215  0  3.933635  0
C  C231  1  0.89932867  0.40604856  0.35473215  1  0.550835  0  0.052919  0.110085  0  3.933842  0
C  C232  1  0.06441366  0.86596865  0.67769767  1  -0.048648  0  -0.091628  -0.132634  0  3.974967  0
C  C233  1  0.43557240  0.13402838  0.17769468  1  -0.048961  0  -0.09156  -0.132562  0  3.974683  0
C  C234  1  0.56442918  0.63402883  0.32230550  1  -0.048913  0  -0.091573  -0.132519  0  3.974742  0
C  C235  1  0.93558147  0.36597278  0.82230164  1  -0.047544  0  -0.091578  -0.132594  0  3.974805  0
C  C236  1  0.45630806  0.73700259  0.71275047  1  -0.094255  0  -0.090077  -0.093089  0  3.999635  0
C  C237  1  0.04368471  0.26299820  0.21274951  1  -0.094309  0  -0.089963  -0.092784  0  3.999518  0
C  C238  1  0.95630997  0.76299780  0.28724828  1  -0.094799  0  -0.089982  -0.092983  0  3.999678  0
C  C239  1  0.54368411  0.23700489  0.78725054  1  -0.094641  0  -0.090038  -0.092885  0  3.999501  0
C  C240  1  0.26927590  0.94646218  0.92592896  1  -0.061138  0  -0.23552  -0.401163  0  3.982245  0
C  C241  1  0.23073054  0.05353983  0.42592778  1  -0.060834  0  -0.235525  -0.401137  0  3.98218  0
C  C242  1  0.76927606  0.55353958  0.07407116  1  -0.060819  0  -0.235536  -0.401084  0  3.982322  0
C  C243  1  0.73072970  0.44645988  0.57407159  1  -0.060945  0  -0.235557  -0.4012  0  3.982314  0
C  C244  1  0.17214152  0.88606639  0.10453329  1  0.003133  0  -0.088499  -0.175076  0  3.932156  0
C  C245  1  0.32786900  0.11393400  0.60453505  1  0.003086  0  -0.088512  -0.175105  0  3.93193  0
C  C246  1  0.67213283  0.61393464  0.89546494  1  0.002958  0  -0.088485  -0.174996  0  3.932179  0
C  C247  1  0.82786884  0.38606523  0.39546655  1  0.003049  0  -0.08853  -0.175071  0  3.932101  0
C  C248  1  0.25848952  0.75274151  0.88123965  1  1.166522  0  0.193603  0.253168  0  3.994654  0
C  C249  1  0.24150286  0.24725831  0.38123902  1  1.166491  0  0.193607  0.253126  0  3.99482  0
C  C250  1  0.75849761  0.74725905  0.11875874  1  1.166501  0  0.193588  0.252925  0  3.995169  0
C  C251  1  0.74150672  0.25274220  0.61875969  1  1.166534  0  0.193607  0.252982  0  3.994971  0
C  C252  1  0.81950197  0.85901442  0.95163914  1  -0.013278  0  -0.239676  -0.405218  0  3.977941  0
C  C253  1  0.68049722  0.14098526  0.45163879  1  -0.013552  0  -0.239657  -0.405157  0  3.977798  0
C  C254  1  0.31950147  0.64098366  0.04836004  1  -0.013517  0  -0.239644  -0.405182  0  3.977925  0
C  C255  1  0.18050027  0.35901651  0.54836152  1  -0.013513  0  -0.239604  -0.40503  0  3.977761  0
S  S256  1  0.67178880  0.89130227  0.03527199  1  0.236164  0  0.097458  0.102793  0  2.850207  0
S  S257  1  0.82821715  0.10869745  0.53527168  1  0.23584  0  0.097469  0.102824  0  2.850054  0
S  S258  1  0.17178332  0.60869876  0.96472726  1  0.236299  0  0.097452  0.102808  0  2.85019  0
S  S259  1  0.32821447  0.39130178  0.46472821  1  0.235896  0  0.097466  0.102756  0  2.850144  0
S  S260  1  0.55872393  0.99177885  0.87396874  1  0.229369  0  0.103413  0.110722  0  2.786977  0
S  S261  1  0.94127425  0.00822175  0.37396782  1  0.229479  0  0.103422  0.110737  0  2.786964  0
S  S262  1  0.05872575  0.50822146  0.12603236  1  0.229443  0  0.103424  0.110758  0  2.786915  0
S  S263  1  0.44128263  0.49177861  0.62603262  1  0.22955  0  0.10344  0.110755  0  2.786998  0
N  N264  1  0.19156933  0.01258033  0.77368842  1  -1.283973  0  -0.338029  -0.246973  0  3.599617  0
N  N265  1  0.30842956  0.98742070  0.27368616  1  -1.284131  0  -0.338091  -0.247132  0  3.599604  0
N  N266  1  0.69157418  0.48742103  0.22631190  1  -1.283992  0  -0.33804  -0.246996  0  3.599556  0
N  N267  1  0.80842927  0.51257740  0.72631163  1  -1.284115  0  -0.338133  -0.247064  0  3.599754  0
N  N268  1  0.20717607  0.93386771  0.17531626  1  -1.260933  0  -0.330323  -0.22676  0  3.584181  0
N  N269  1  0.29282680  0.06613254  0.67531749  1  -1.26103  0  -0.330372  -0.226843  0  3.584407  0
N  N270  1  0.70717269  0.56613289  0.82468169  1  -1.26098  0  -0.33036  -0.226869  0  3.584271  0
N  N271  1  0.79282678  0.43386591  0.32468302  1  -1.260975  0  -0.330372  -0.226871  0  3.584296  0
O  O272  1  0.53519947  0.96839786  0.72844464  1  -1.184262  0  -0.344859  -0.570009  0  2.357998  0
O  O273  1  0.96479420  0.03160260  0.22844828  1  -1.184072  0  -0.344845  -0.569924  0  2.357715  0
O  O274  1  0.03520135  0.53160288  0.27155882  1  -1.184017  0  -0.344961  -0.570001  0  2.357775  0
O  O275  1  0.46480451  0.46839653  0.77155358  1  -1.184236  0  -0.344834  -0.570007  0  2.358008  0
O  O276  1  0.42468672  0.59447775  0.74184998  1  -1.177349  0  -0.345698  -0.568366  0  2.345455  0
O  O277  1  0.07531822  0.40552195  0.24185187  1  -1.177357  0  -0.345654  -0.568293  0  2.345526  0
O  O278  1  0.92467929  0.90552186  0.25814700  1  -1.177366  0  -0.345661  -0.568302  0  2.345592  0
O  O279  1  0.57530967  0.09447991  0.75814995  1  -1.177184  0  -0.345713  -0.568298  0  2.34548  0
O  O280  1  0.71418826  0.00497807  0.67246297  1  -1.183045  0  -0.332201  -0.567511  0  2.134513  0
O  O281  1  0.78580929  0.99501773  0.17246549  1  -1.18258  0  -0.332135  -0.567364  0  2.13449  0
O  O282  1  0.21420141  0.49501883  0.32753842  1  -1.182823  0  -0.332117  -0.567191  0  2.134298  0
O  O283  1  0.28581041  0.50498079  0.82753261  1  -1.182981  0  -0.332233  -0.5676  0  2.134445  0
O  O284  1  0.68608318  0.64647693  0.73749869  1  -1.17459  0  -0.32661  -0.55395  0  2.129721  0
O  O285  1  0.81391921  0.35352194  0.23749951  1  -1.174543  0  -0.326624  -0.553936  0  2.129641  0
O  O286  1  0.18607599  0.85352086  0.26250025  1  -1.174522  0  -0.326663  -0.553988  0  2.129571  0
O  O287  1  0.31391130  0.14648013  0.76250412  1  -1.174689  0  -0.326534  -0.553775  0  2.129567  0
F  F288  1  0.45183384  0.72200961  0.94434415  1  -0.616556  0  -0.108622  -0.184944  0  1.339987  0
F  F289  1  0.04815206  0.27799368  0.44434119  1  -0.616718  0  -0.108467  -0.184803  0  1.339901  0
F  F290  1  0.95185937  0.77799038  0.05565904  1  -0.616603  0  -0.108534  -0.184883  0  1.339945  0
F  F291  1  0.54815426  0.22201022  0.55565750  1  -0.616647  0  -0.108647  -0.18497  0  1.33996  0
F  F292  1  0.17322218  0.75562236  0.96182777  1  -0.620995  0  -0.101486  -0.166284  0  1.353009  0
F  F293  1  0.32676285  0.24438261  0.46182831  1  -0.620863  0  -0.101491  -0.166295  0  1.352913  0
F  F294  1  0.67324327  0.74438271  0.03816875  1  -0.620886  0  -0.101577  -0.166389  0  1.35261  0
F  F295  1  0.82676559  0.25562066  0.53817021  1  -0.620966  0  -0.101465  -0.166236  0  1.353062  0
F  F296  1  0.53203857  0.77107028  0.83469405  1  -0.603991  0  -0.105511  -0.168584  0  1.280927  0
F  F297  1  0.96795417  0.22892977  0.33469309  1  -0.604068  0  -0.105495  -0.168575  0  1.280992  0
F  F298  1  0.03204225  0.72893046  0.16530598  1  -0.604078  0  -0.105468  -0.168528  0  1.281049  0
F  F299  1  0.46795890  0.27107097  0.66530431  1  -0.604013  0  -0.10546  -0.168545  0  1.281132  0
F  F300  1  0.27435789  0.81763485  0.81897679  1  -0.617302  0  -0.095635  -0.156861  0  1.339116  0
F  F301  1  0.22563960  0.18236151  0.31897698  1  -0.617256  0  -0.09566  -0.156897  0  1.339021  0
F  F302  1  0.77436010  0.68236488  0.18102334  1  -0.617344  0  -0.095647  -0.156893  0  1.33909  0
F  F303  1  0.72563913  0.31763499  0.68102375  1  -0.617327  0  -0.095616  -0.156874  0  1.339135  0
F  F304  1  0.28446190  0.70133792  0.86631494  1  -0.609573  0  -0.091983  -0.139553  0  1.374444  0
F  F305  1  0.21553424  0.29866265  0.36631474  1  -0.609605  0  -0.09197  -0.139529  0  1.374426  0
F  F306  1  0.78445868  0.79866301  0.13368384  1  -0.609588  0  -0.091946  -0.139449  0  1.374558  0
F  F307  1  0.71553907  0.20133748  0.63368426  1  -0.609555  0  -0.091955  -0.139465  0  1.374469  0
F  F308  1  0.07093568  0.76501659  0.87736547  1  -0.612389  0  -0.104183  -0.156188  0  1.339145  0
F  F309  1  0.42906081  0.23498604  0.37736583  1  -0.612293  0  -0.10419  -0.156163  0  1.339187  0
F  F310  1  0.57093837  0.73498492  0.12263292  1  -0.612281  0  -0.104206  -0.156128  0  1.339267  0
F  F311  1  0.92906185  0.26501715  0.62263528  1  -0.612346  0  -0.104186  -0.156132  0  1.339165  0
