# generated using pymatgen
data_Al2H56C49O11
_symmetry_space_group_name_H-M   'P 1'
_cell_length_a   6.84464973
_cell_length_b   21.65535857
_cell_length_c   21.43493883
_cell_angle_alpha   93.05999808
_cell_angle_beta   89.99951159
_cell_angle_gamma   89.99981708
_symmetry_Int_Tables_number   1
_chemical_formula_structural   Al2H56C49O11
_chemical_formula_sum   'Al4 H112 C98 O22'
_cell_volume   3172.62826943
_cell_formula_units_Z   2
loop_
 _symmetry_equiv_pos_site_id
 _symmetry_equiv_pos_as_xyz
  1  'x, y, z'
loop_
 _atom_site_type_symbol
 _atom_site_label
 _atom_site_symmetry_multiplicity
 _atom_site_fract_x
 _atom_site_fract_y
 _atom_site_fract_z
 _atom_site_occupancy
 _atom_site_pbe_bader_charge
 _atom_site_pbe_bader_spin_density
 _atom_site_pbe_cm5_charge
 _atom_site_pbe_ddec_charge
 _atom_site_pbe_ddec_spin_density
 _atom_site_pbe_ddec_sum_bond_order
 _atom_site_pbe_magmom
Al  Al0  1  0.87023812  0.50088748  0.49738209  1  2.502085  0  0.408311  1.638793  0  2.562382  0
Al  Al1  1  0.37024608  0.49910848  0.50261454  1  2.502055  0  0.408315  1.638815  0  2.5623  0
Al  Al2  1  0.33997503  0.99994778  0.99856990  1  2.501012  0  0.408677  1.647857  0  2.544303  0
Al  Al3  1  0.83998161  0.00005111  0.00142913  1  2.5008  0  0.408698  1.647717  0  2.54452  0
H  H4  1  0.16021330  0.80368232  0.92920361  1  0.044434  0  0.102621  0.105921  0  0.993792  0
H  H5  1  0.66017052  0.19631492  0.07078050  1  0.044097  0  0.102654  0.106105  0  0.993668  0
H  H6  1  0.21738886  0.69461429  0.90170868  1  0.076558  0  0.098503  0.097768  0  0.999772  0
H  H7  1  0.71735143  0.30538454  0.09830284  1  0.076724  0  0.098425  0.097729  0  1.000145  0
H  H8  1  0.23513128  0.60715002  0.82234945  1  0.037739  0  0.100521  0.103173  0  0.997107  0
H  H9  1  0.73518571  0.39284209  0.17765039  1  0.037776  0  0.100593  0.103316  0  0.997091  0
H  H10  1  0.20741790  0.56814443  0.71161861  1  0.062848  0  0.104635  0.110225  0  1.004433  0
H  H11  1  0.70746746  0.43185784  0.28838076  1  0.062822  0  0.104674  0.110363  0  1.004289  0
H  H12  1  0.01976159  0.69025511  0.57105455  1  0.044764  0  0.102916  0.107867  0  0.997083  0
H  H13  1  0.51978244  0.30974099  0.42893931  1  0.044346  0  0.102903  0.107865  0  0.997215  0
H  H14  1  0.98897456  0.80143697  0.59699639  1  0.051525  0  0.097107  0.098419  0  1.012762  0
H  H15  1  0.48896226  0.19855937  0.40300832  1  0.051733  0  0.097207  0.098594  0  1.012505  0
H  H16  1  0.18282758  0.85575095  0.28864702  1  0.007604  0  0.092949  0.094576  0  1.042564  0
H  H17  1  0.68285147  0.14425791  0.71136172  1  0.007844  0  0.092987  0.094629  0  1.042702  0
H  H18  1  0.86560176  0.75170334  0.33022658  1  0.035191  0  0.095146  0.072282  0  1.019381  0
H  H19  1  0.36561535  0.24829480  0.66977566  1  0.035118  0  0.095148  0.072291  0  1.019502  0
H  H20  1  0.34869945  0.74689871  0.17184232  1  0.023602  0  0.089732  0.082445  0  1.057651  0
H  H21  1  0.84870147  0.25310173  0.82815948  1  0.023935  0  0.089732  0.082443  0  1.057684  0
H  H22  1  0.13578635  0.72045498  0.13473978  1  0.037468  0  0.092804  0.089719  0  1.035421  0
H  H23  1  0.63578269  0.27954107  0.86526265  1  0.037387  0  0.092751  0.089632  0  1.035518  0
H  H24  1  0.33022635  0.65859938  0.22960099  1  0.009688  0  0.09369  0.092908  0  1.009396  0
H  H25  1  0.83025084  0.34140632  0.77040363  1  0.009732  0  0.093695  0.092935  0  1.009328  0
H  H26  1  0.37636052  0.82325978  0.24560252  1  0.039771  0  0.089649  0.085548  0  1.049408  0
H  H27  1  0.87637559  0.17673579  0.75439549  1  0.039503  0  0.089634  0.085464  0  1.049659  0
H  H28  1  0.40353029  0.74146980  0.30651167  1  0.022931  0  0.09551  0.066567  0  1.002973  0
H  H29  1  0.90356215  0.25853089  0.69349512  1  0.023542  0  0.095437  0.066463  0  1.002998  0
H  H30  1  0.08669784  0.64422025  0.20698809  1  0.017899  0  0.091687  0.088101  0  1.012279  0
H  H31  1  0.58669380  0.35577887  0.79301865  1  0.017891  0  0.091687  0.08811  0  1.012247  0
H  H32  1  0.09616141  0.00401410  0.85686712  1  0.068075  0  0.110337  0.078458  0  0.98775  0
H  H33  1  0.84562611  0.98106533  0.84859713  1  0.06197  0  0.107183  0.074701  0  0.998115  0
H  H34  1  0.81631336  0.04328146  0.75475188  1  0.01281  0  0.08904  0.122045  0  1.013091  0
H  H35  1  0.91569353  0.08954916  0.81806824  1  0.062566  0  0.091374  0.129224  0  1.029519  0
H  H36  1  0.07169076  0.05906253  0.75787906  1  0.047801  0  0.089179  0.120296  0  1.061196  0
H  H37  1  0.59615157  0.99597912  0.14312608  1  0.068251  0  0.110308  0.07846  0  0.987745  0
H  H38  1  0.34561526  0.01894189  0.15140977  1  0.061814  0  0.10721  0.074627  0  0.998088  0
H  H39  1  0.31631726  0.95672118  0.24524766  1  0.012841  0  0.089065  0.122073  0  1.01307  0
H  H40  1  0.41568795  0.91044844  0.18193339  1  0.062678  0  0.091376  0.129197  0  1.029513  0
H  H41  1  0.57170226  0.94093349  0.24211419  1  0.04778  0  0.089128  0.12032  0  1.061246  0
H  H42  1  0.50167112  0.66584500  0.12452747  1  0.015853  0  0.084917  0.115871  0  1.017528  0
H  H43  1  0.52680203  0.72755172  0.07378964  1  0.037315  0  0.085508  0.114418  0  0.999257  0
H  H44  1  0.64471228  0.65576310  0.05583223  1  0.02812  0  0.085991  0.111269  0  1.00331  0
H  H45  1  0.89272111  0.72739911  0.09620933  1  0.019258  0  0.087123  0.075024  0  0.993949  0
H  H46  1  0.85249802  0.67163254  0.15193401  1  0.018867  0  0.087977  0.077288  0  1.010997  0
H  H47  1  0.60135329  0.75550520  0.20048390  1  0.006746  0  0.085231  0.073833  0  1.062703  0
H  H48  1  0.72454912  0.80695423  0.15449435  1  0.028147  0  0.09154  0.091685  0  0.994386  0
H  H49  1  0.00168991  0.33415297  0.87547438  1  0.016002  0  0.084939  0.115869  0  1.0174  0
H  H50  1  0.02680846  0.27244903  0.92621258  1  0.037047  0  0.085535  0.114419  0  0.999234  0
H  H51  1  0.14473204  0.34423593  0.94417389  1  0.028072  0  0.086004  0.111291  0  1.003353  0
H  H52  1  0.39272230  0.27258864  0.90379711  1  0.018949  0  0.087159  0.074939  0  0.994008  0
H  H53  1  0.35253222  0.32836362  0.84807342  1  0.018887  0  0.087956  0.077321  0  1.010928  0
H  H54  1  0.10137366  0.24449475  0.79952139  1  0.006277  0  0.085231  0.073851  0  1.062692  0
H  H55  1  0.22455276  0.19304002  0.84551017  1  0.028195  0  0.091537  0.091686  0  0.994424  0
H  H56  1  0.78740685  0.96454236  0.31578455  1  0.022364  0  0.088183  0.115792  0  1.010406  0
H  H57  1  0.57837776  0.92528996  0.34172260  1  0.02693  0  0.083008  0.103051  0  1.059757  0
H  H58  1  0.76761817  0.94584288  0.39510170  1  0.011641  0  0.087229  0.114589  0  0.999271  0
H  H59  1  0.79191700  0.83399368  0.36580703  1  -0.01285  0  0.083857  0.066115  0  1.028731  0
H  H60  1  0.99567042  0.87441008  0.34012787  1  0.020503  0  0.087529  0.078292  0  1.035177  0
H  H61  1  0.82876630  0.87793205  0.23247481  1  0.049735  0  0.08957  0.08808  0  1.014564  0
H  H62  1  0.63646410  0.83601406  0.26264055  1  -0.020475  0  0.087606  0.083399  0  1.037729  0
H  H63  1  0.28742242  0.03545718  0.68420901  1  0.021622  0  0.088246  0.11585  0  1.010325  0
H  H64  1  0.07840674  0.07471252  0.65827853  1  0.027051  0  0.083012  0.103049  0  1.059686  0
H  H65  1  0.26763713  0.05416133  0.60490030  1  0.011656  0  0.087162  0.114542  0  0.999358  0
H  H66  1  0.29191785  0.16601290  0.63419628  1  -0.012732  0  0.083909  0.066213  0  1.028519  0
H  H67  1  0.49567395  0.12559362  0.65986882  1  0.020622  0  0.087537  0.078346  0  1.03517  0
H  H68  1  0.32877867  0.12206434  0.76752847  1  0.049627  0  0.089539  0.088023  0  1.014464  0
H  H69  1  0.13647244  0.16398311  0.73736513  1  -0.020405  0  0.087595  0.083458  0  1.037689  0
H  H70  1  0.50109370  0.57591709  0.29517812  1  -0.008092  0  0.071367  0.091089  0  1.030473  0
H  H71  1  0.73871120  0.55363263  0.31975365  1  0.029479  0  0.077113  0.101381  0  1.022198  0
H  H72  1  0.55001409  0.56771411  0.37561258  1  0.083943  0  0.090211  0.134147  0  1.032679  0
H  H73  1  0.78581820  0.65556076  0.37615485  1  0.02597  0  0.083005  0.076541  0  1.025472  0
H  H74  1  0.55139292  0.67973011  0.35481301  1  -0.016144  0  0.078396  0.064344  0  1.027389  0
H  H75  1  0.63388212  0.68391419  0.24744504  1  0.016504  0  0.08388  0.07513  0  1.046961  0
H  H76  1  0.83194798  0.63385805  0.25292786  1  -0.015508  0  0.085226  0.07535  0  1.020514  0
H  H77  1  0.00111460  0.42408404  0.70483772  1  -0.008224  0  0.071328  0.090942  0  1.030499  0
H  H78  1  0.23872959  0.44637138  0.68025216  1  0.029269  0  0.077123  0.101332  0  1.022188  0
H  H79  1  0.05003413  0.43229180  0.62439140  1  0.084252  0  0.090291  0.134179  0  1.032535  0
H  H80  1  0.28582902  0.34444337  0.62385364  1  0.026024  0  0.082974  0.076455  0  1.025452  0
H  H81  1  0.05139613  0.32026980  0.64519101  1  -0.016027  0  0.078373  0.064299  0  1.027394  0
H  H82  1  0.13388834  0.31608417  0.75255737  1  0.016463  0  0.083862  0.075121  0  1.047055  0
H  H83  1  0.33195378  0.36613577  0.74707871  1  -0.015403  0  0.085242  0.075382  0  1.020499  0
H  H84  1  0.78522931  0.02148724  0.64869694  1  0.001355  0  0.078893  0.098624  0  1.048735  0
H  H85  1  0.73376134  0.97322645  0.58135921  1  -0.023599  0  0.080946  0.103723  0  1.010557  0
H  H86  1  0.54533596  0.99231083  0.63583664  1  0.048168  0  0.083613  0.111143  0  1.040633  0
H  H87  1  0.66084264  0.88452893  0.65066480  1  0.006917  0  0.086496  0.075035  0  0.977492  0
H  H88  1  0.71847189  0.93223327  0.71723220  1  0.01854  0  0.08827  0.078867  0  0.991382  0
H  H89  1  0.06064614  0.94390782  0.67801826  1  0.038016  0  0.092766  0.094223  0  1.026628  0
H  H90  1  0.99885456  0.90017733  0.60897945  1  -0.03243  0  0.085305  0.076642  0  0.999643  0
H  H91  1  0.28520528  0.97851070  0.35130085  1  0.001284  0  0.078801  0.098532  0  1.048756  0
H  H92  1  0.23372278  0.02677849  0.41863119  1  -0.023369  0  0.080882  0.103624  0  1.010742  0
H  H93  1  0.04530638  0.00769381  0.36415381  1  0.048108  0  0.083594  0.111049  0  1.040716  0
H  H94  1  0.16082832  0.11547309  0.34932208  1  0.007053  0  0.086544  0.075083  0  0.977428  0
H  H95  1  0.21845551  0.06776332  0.28275737  1  0.018126  0  0.088393  0.079047  0  0.991656  0
H  H96  1  0.56062303  0.05609391  0.32197778  1  0.039225  0  0.092801  0.094206  0  1.026644  0
H  H97  1  0.49882615  0.09982403  0.39101678  1  -0.032337  0  0.0854  0.07672  0  0.999622  0
H  H98  1  0.19291603  0.87273542  0.47851816  1  0.01976  0  0.081918  0.105693  0  1.009265  0
H  H99  1  0.34592020  0.81265063  0.50358728  1  0.018371  0  0.085474  0.113062  0  1.000932  0
H  H100  1  0.44733497  0.88589195  0.48866868  1  0.038572  0  0.084471  0.109566  0  1.008401  0
H  H101  1  0.52194816  0.81129708  0.39888099  1  0.013573  0  0.086724  0.076213  0  0.99331  0
H  H102  1  0.36405402  0.86973691  0.37508998  1  -0.002082  0  0.082575  0.064449  0  1.024427  0
H  H103  1  0.07877155  0.79607513  0.39020352  1  0.011399  0  0.086086  0.075792  0  1.037018  0
H  H104  1  0.24809512  0.73877736  0.40816306  1  0.0398  0  0.089437  0.086374  0  1.006851  0
H  H105  1  0.69293352  0.12727148  0.52148122  1  0.019868  0  0.081956  0.105776  0  1.009241  0
H  H106  1  0.84594647  0.18735584  0.49641495  1  0.017803  0  0.085464  0.113014  0  1.000982  0
H  H107  1  0.94733535  0.11410924  0.51133939  1  0.037581  0  0.084541  0.109631  0  1.008447  0
H  H108  1  0.02196133  0.18869310  0.60112973  1  0.013135  0  0.086692  0.076194  0  0.99332  0
H  H109  1  0.86403510  0.13026012  0.62491694  1  -0.002012  0  0.082571  0.064299  0  1.024524  0
H  H110  1  0.57878290  0.20393792  0.60979660  1  0.011651  0  0.086034  0.075772  0  1.036972  0
H  H111  1  0.74813407  0.26122754  0.59184226  1  0.039856  0  0.089404  0.086307  0  1.006798  0
H  H112  1  0.62125448  0.57641382  0.52934530  1  0.594192  0  0.349711  0.42771  0  0.857693  0
H  H113  1  0.12125099  0.42358667  0.47065385  1  0.594179  0  0.349687  0.427655  0  0.857748  0
H  H114  1  0.59067795  0.91912361  0.99229905  1  0.626118  0  0.354655  0.436266  0  0.842572  0
H  H115  1  0.09067611  0.08086880  0.00770352  1  0.626313  0  0.354698  0.436393  0  0.842458  0
C  C116  1  0.62679769  0.42473044  0.57844500  1  1.687159  0  0.27722  0.716157  0  4.159822  0
C  C117  1  0.12677775  0.57526168  0.42156121  1  1.687272  0  0.277168  0.715996  0  4.159412  0
C  C118  1  0.61844593  0.42686874  0.41249682  1  1.588724  0  0.280416  0.670269  0  4.061478  0
C  C119  1  0.11842156  0.57312504  0.58750614  1  1.588587  0  0.280578  0.670645  0  4.061232  0
C  C120  1  0.05709314  0.88507725  0.80092801  1  0.515348  0  0.097867  0.200402  0  3.996384  0
C  C121  1  0.55707559  0.11493094  0.19906005  1  0.516225  0  0.097902  0.200451  0  3.995969  0
C  C122  1  0.08896836  0.87243195  0.86410572  1  -0.032159  0  -0.031695  -0.159263  0  4.011286  0
C  C123  1  0.58894360  0.12757841  0.13588831  1  -0.032782  0  -0.031635  -0.158872  0  4.01147  0
C  C124  1  0.13158863  0.81236244  0.88029876  1  -0.001878  0  -0.089242  -0.140104  0  4.000504  0
C  C125  1  0.63152418  0.18764241  0.11968865  1  -0.00157  0  -0.089357  -0.140612  0  4.000601  0
C  C126  1  0.14008957  0.76311867  0.83556237  1  0.036792  0  -0.019169  0.059352  0  4.078093  0
C  C127  1  0.64007451  0.23688035  0.16443581  1  0.036987  0  -0.019011  0.059606  0  4.077758  0
C  C128  1  0.10103796  0.77484653  0.77166268  1  -0.049131  0  0.003532  0.020572  0  3.927989  0
C  C129  1  0.60105638  0.22515715  0.22833557  1  -0.049129  0  0.003404  0.020519  0  3.928025  0
C  C130  1  0.05827746  0.83630545  0.75324086  1  0.066625  0  -0.011186  -0.078499  0  3.925647  0
C  C131  1  0.55825663  0.16369450  0.24675614  1  0.066119  0  -0.011216  -0.078714  0  3.925368  0
C  C132  1  0.18756326  0.70178549  0.85256101  1  -0.095434  0  -0.095333  -0.132405  0  4.042268  0
C  C133  1  0.68756112  0.29821545  0.14744684  1  -0.095513  0  -0.095301  -0.132379  0  4.042887  0
C  C134  1  0.19723152  0.65359618  0.80900645  1  -0.030969  0  -0.098908  -0.148773  0  4.04221  0
C  C135  1  0.69724520  0.34640681  0.19099716  1  -0.030785  0  -0.099026  -0.149065  0  4.041995  0
C  C136  1  0.15636538  0.66297221  0.74467657  1  -0.008938  0  -0.00628  0.088321  0  4.040432  0
C  C137  1  0.65638328  0.33702735  0.25533091  1  -0.008984  0  -0.006345  0.088326  0  4.040351  0
C  C138  1  0.10621223  0.72379047  0.72686842  1  -0.001752  0  0.00109  -0.005567  0  3.907747  0
C  C139  1  0.60623180  0.27620926  0.27312565  1  -0.001876  0  0.001268  -0.005281  0  3.90788  0
C  C140  1  0.06126406  0.73341499  0.66327895  1  -0.000414  0  -0.010409  0.09068  0  4.091232  0
C  C141  1  0.56126157  0.26657771  0.33672043  1  -0.000138  0  -0.010427  0.090666  0  4.091113  0
C  C142  1  0.02026550  0.79459692  0.64619165  1  -0.081101  0  -0.097513  -0.208065  0  3.99385  0
C  C143  1  0.52029392  0.20540019  0.35381155  1  -0.081389  0  -0.097675  -0.208388  0  3.993794  0
C  C144  1  0.01945673  0.84530498  0.68753726  1  0.003726  0  -0.003248  0.102408  0  3.921806  0
C  C145  1  0.51945761  0.15469102  0.31246268  1  0.003833  0  -0.00322  0.10257  0  3.921671  0
C  C146  1  0.16464573  0.61429555  0.69870776  1  0.04698  0  -0.087684  -0.163163  0  3.940806  0
C  C147  1  0.66469838  0.38570851  0.30129780  1  0.046482  0  -0.087641  -0.163375  0  3.941351  0
C  C148  1  0.11378195  0.62429268  0.63698186  1  -0.034196  0  -0.015079  -0.025876  0  4.039566  0
C  C149  1  0.61382575  0.37570623  0.36301406  1  -0.034415  0  -0.015065  -0.025671  0  4.040088  0
C  C150  1  0.05978494  0.68297504  0.61941078  1  -0.045614  0  -0.091062  -0.169968  0  3.958223  0
C  C151  1  0.55978217  0.31702519  0.38058341  1  -0.044557  0  -0.091051  -0.170023  0  3.95811  0
C  C152  1  0.23366638  0.81259297  0.26551984  1  -0.014896  0  -0.15778  -0.226329  0  3.817431  0
C  C153  1  0.73367748  0.18740723  0.73449163  1  -0.014678  0  -0.157834  -0.22644  0  3.817684  0
C  C154  1  0.88508233  0.78003123  0.23506192  1  0.045357  0  0.001141  0.083443  0  3.601721  0
C  C155  1  0.38510975  0.21997352  0.76494302  1  0.045196  0  0.001161  0.083157  0  3.6016  0
C  C156  1  0.89931059  0.72863881  0.28463197  1  -0.018612  0  -0.076794  -0.063203  0  3.668172  0
C  C157  1  0.39930369  0.27136161  0.71537015  1  -0.018374  0  -0.076809  -0.063145  0  3.668856  0
C  C158  1  0.13542288  0.61750354  0.37189592  1  0.202122  0  -0.038509  -0.215151  0  3.923776  0
C  C159  1  0.63543758  0.38248962  0.62811213  1  0.202613  0  -0.038586  -0.215235  0  3.924342  0
C  C160  1  0.09720590  0.79266986  0.21039881  1  0.142186  0  0.003705  0.122541  0  3.834452  0
C  C161  1  0.59723137  0.20732555  0.78960792  1  0.14276  0  0.003804  0.123275  0  3.834353  0
C  C162  1  0.25426170  0.76007877  0.31149823  1  0.024906  0  -0.0781  -0.008467  0  3.761497  0
C  C163  1  0.75427784  0.23992262  0.68851036  1  0.024328  0  -0.077913  -0.008245  0  3.761206  0
C  C164  1  0.11602878  0.70563935  0.28981247  1  0.121702  0  0.004558  0.107489  0  3.847444  0
C  C165  1  0.61601889  0.29435623  0.71018954  1  0.121615  0  0.004556  0.10718  0  3.847957  0
C  C166  1  0.18682523  0.68066367  0.22476743  1  -0.001421  0  -0.154568  -0.190562  0  3.877194  0
C  C167  1  0.68683523  0.31933322  0.77523438  1  -0.001243  0  -0.154577  -0.190627  0  3.877096  0
C  C168  1  0.19708318  0.73393136  0.18041235  1  -0.01738  0  -0.16307  -0.199901  0  3.876304  0
C  C169  1  0.69707797  0.26606205  0.81959319  1  -0.017991  0  -0.163105  -0.199995  0  3.876603  0
C  C170  1  0.12907223  0.65689095  0.33361634  1  -0.510891  0  -0.000638  0.011864  0  3.982795  0
C  C171  1  0.62905858  0.34311084  0.66638933  1  -0.511158  0  -0.00063  0.01205  0  3.983269  0
C  C172  1  0.09369255  0.84004795  0.16475077  1  -0.556429  0  -0.001071  0.016611  0  3.982891  0
C  C173  1  0.59369542  0.15996887  0.83525862  1  -0.556416  0  -0.001094  0.016523  0  3.983197  0
C  C174  1  0.09074602  0.87957162  0.12640991  1  0.247258  0  -0.051236  -0.24033  0  3.944021  0
C  C175  1  0.59077167  0.12042368  0.87358703  1  0.246697  0  -0.051134  -0.240325  0  3.944087  0
C  C176  1  0.58975251  0.07989068  0.08226496  1  1.567026  0  0.273731  0.672423  0  4.086047  0
C  C177  1  0.08975485  0.92011503  0.91772864  1  1.567086  0  0.273812  0.672548  0  4.086111  0
C  C178  1  0.58877709  0.07243781  0.91777004  1  1.634336  0  0.271538  0.719918  0  4.150155  0
C  C179  1  0.08876085  0.92756033  0.08222034  1  1.634218  0  0.27157  0.71987  0  4.149392  0
C  C180  1  0.97733655  0.99383928  0.82330921  1  0.389587  0  -0.069433  0.075537  0  3.884998  0
C  C181  1  0.94298411  0.04955699  0.78580686  1  -0.059408  0  -0.252897  -0.405483  0  3.963073  0
C  C182  1  0.47733685  0.00616124  0.17668803  1  0.390061  0  -0.069548  0.075516  0  3.884917  0
C  C183  1  0.44298891  0.95044232  0.21419281  1  -0.059508  0  -0.252845  -0.405458  0  3.962937  0
C  C184  1  0.74422424  0.76412737  0.17935971  1  -0.039223  0  -0.166626  -0.211662  0  3.880703  0
C  C185  1  0.78646257  0.71142355  0.13021900  1  -0.030607  0  -0.16809  -0.087133  0  3.936198  0
C  C186  1  0.60470661  0.68905177  0.09420854  1  -0.070896  0  -0.245345  -0.356518  0  3.966294  0
C  C187  1  0.24424561  0.23587020  0.82064661  1  -0.038683  0  -0.166761  -0.211764  0  3.880949  0
C  C188  1  0.28647910  0.28857313  0.86978861  1  -0.030588  0  -0.167992  -0.08701  0  3.936272  0
C  C189  1  0.10472193  0.31094901  0.90579534  1  -0.070655  0  -0.245406  -0.356517  0  3.966198  0
C  C190  1  0.79599010  0.84155554  0.26496829  1  -0.014173  0  -0.165531  -0.206391  0  3.845762  0
C  C191  1  0.83948581  0.86713824  0.33175164  1  0.006962  0  -0.171395  -0.101585  0  3.951267  0
C  C192  1  0.73738362  0.92891355  0.34682280  1  -0.071474  0  -0.245665  -0.362346  0  3.971275  0
C  C193  1  0.29600294  0.15844585  0.73503318  1  -0.014261  0  -0.165527  -0.206399  0  3.845519  0
C  C194  1  0.33949196  0.13286187  0.66824457  1  0.006657  0  -0.171475  -0.101779  0  3.951205  0
C  C195  1  0.23740109  0.07108727  0.65317604  1  -0.07087  0  -0.245645  -0.362277  0  3.971273  0
C  C196  1  0.75767190  0.67317640  0.27752159  1  -0.014766  0  -0.170575  -0.180201  0  3.907701  0
C  C197  1  0.67573274  0.65060463  0.33906051  1  0.006195  0  -0.175149  -0.103898  0  3.964777  0
C  C198  1  0.61205720  0.58311654  0.33202480  1  -0.087639  0  -0.255904  -0.358169  0  3.967371  0
C  C199  1  0.25768319  0.32681985  0.72248610  1  -0.014639  0  -0.170549  -0.1802  0  3.907787  0
C  C200  1  0.17574689  0.34939188  0.66095021  1  0.005816  0  -0.17509  -0.103805  0  3.96432  0
C  C201  1  0.11207187  0.41688403  0.66798326  1  -0.087517  0  -0.255918  -0.357924  0  3.967107  0
C  C202  1  0.96835558  0.90594857  0.65944885  1  0.053057  0  -0.164836  -0.199011  0  3.968031  0
C  C203  1  0.75227419  0.92393825  0.66729293  1  0.02292  0  -0.166266  -0.08708  0  3.956959  0
C  C204  1  0.70093937  0.98080582  0.63146259  1  -0.047636  0  -0.248303  -0.354664  0  3.975848  0
C  C205  1  0.46832712  0.09405363  0.34054560  1  0.052027  0  -0.164946  -0.198997  0  3.968458  0
C  C206  1  0.25226514  0.07606595  0.33269322  1  0.02298  0  -0.16638  -0.087283  0  3.957348  0
C  C207  1  0.20092123  0.01920045  0.36852649  1  -0.047683  0  -0.24815  -0.354414  0  3.975953  0
C  C208  1  0.22868886  0.77995809  0.38080402  1  -0.037288  0  -0.171584  -0.198808  0  3.948413  0
C  C209  1  0.37246334  0.82962896  0.40443744  1  -0.008772  0  -0.166671  -0.080809  0  3.951926  0
C  C210  1  0.33812453  0.85139008  0.47250267  1  -0.072416  0  -0.243274  -0.349496  0  3.972421  0
C  C211  1  0.72870708  0.22004423  0.61919670  1  -0.037569  0  -0.171553  -0.198813  0  3.947933  0
C  C212  1  0.87246960  0.17036877  0.59556571  1  -0.00858  0  -0.1666  -0.080575  0  3.951876  0
C  C213  1  0.83814017  0.14861542  0.52749865  1  -0.070848  0  -0.243398  -0.349636  0  3.972566  0
O  O214  1  0.45460222  0.44311236  0.43622780  1  -1.269023  0  -0.231244  -0.597322  0  2.326958  0
O  O215  1  0.95461670  0.55688605  0.56376484  1  -1.26903  0  -0.23138  -0.597501  0  2.327269  0
O  O216  1  0.78924743  0.44036750  0.55493707  1  -1.245744  0  -0.228916  -0.590174  0  2.327366  0
O  O217  1  0.28925771  0.55963366  0.44506816  1  -1.245495  0  -0.228859  -0.590066  0  2.326802  0
O  O218  1  0.78531316  0.44842045  0.42823713  1  -1.259148  0  -0.229461  -0.590576  0  2.316673  0
O  O219  1  0.28529968  0.55157460  0.57176629  1  -1.259012  0  -0.229526  -0.590729  0  2.316393  0
O  O220  1  0.95604868  0.55910091  0.43807201  1  -1.229449  0  -0.225116  -0.577438  0  2.298779  0
O  O221  1  0.45605862  0.44089204  0.56192955  1  -1.229253  0  -0.225104  -0.577503  0  2.298593  0
O  O222  1  0.61952960  0.53755655  0.50463148  1  -1.398882  0  -0.448293  -0.982915  0  2.141215  0
O  O223  1  0.11953377  0.46244364  0.49537049  1  -1.398868  0  -0.448275  -0.982901  0  2.141284  0
O  O224  1  0.75481756  0.05494212  0.93772207  1  -1.242931  0  -0.232878  -0.594302  0  2.295378  0
O  O225  1  0.25482649  0.94505206  0.06227396  1  -1.24314  0  -0.232825  -0.59424  0  2.295151  0
O  O226  1  0.42598122  0.06424000  0.05783792  1  -1.260773  0  -0.237967  -0.609935  0  2.344555  0
O  O227  1  0.92599445  0.93576459  0.94215709  1  -1.261417  0  -0.2381  -0.609936  0  2.344834  0
O  O228  1  0.42111028  0.05221199  0.93290400  1  -1.237  0  -0.234114  -0.588812  0  2.280776  0
O  O229  1  0.92108549  0.94778200  0.06709157  1  -1.236824  0  -0.234071  -0.588739  0  2.280493  0
O  O230  1  0.25744751  0.93849286  0.93669735  1  -1.250699  0  -0.234639  -0.594974  0  2.321096  0
O  O231  1  0.75743713  0.06150316  0.06329866  1  -1.251198  0  -0.234578  -0.594858  0  2.321256  0
O  O232  1  0.58982025  0.96348200  0.00123732  1  -1.429436  0  -0.447612  -0.989976  0  2.15522  0
O  O233  1  0.08982445  0.03651492  0.99875587  1  -1.429714  0  -0.447621  -0.990121  0  2.155217  0
O  O234  1  0.03228393  0.94295731  0.78075003  1  -1.083094  0  -0.171947  -0.189778  0  2.602511  0
O  O235  1  0.53231470  0.05704173  0.21923910  1  -1.084155  0  -0.171959  -0.189951  0  2.602301  0
