# generated using pymatgen
data_ZnH24C36NO4
_symmetry_space_group_name_H-M   'P 1'
_cell_length_a   10.27625698
_cell_length_b   14.35723138
_cell_length_c   14.32896076
_cell_angle_alpha   87.09887406
_cell_angle_beta   77.11637020
_cell_angle_gamma   73.62211146
_symmetry_Int_Tables_number   1
_chemical_formula_structural   ZnH24C36NO4
_chemical_formula_sum   'Zn2 H48 C72 N2 O8'
_cell_volume   1977.05947490
_cell_formula_units_Z   2
loop_
 _symmetry_equiv_pos_site_id
 _symmetry_equiv_pos_as_xyz
  1  'x, y, z'
loop_
 _atom_site_type_symbol
 _atom_site_label
 _atom_site_symmetry_multiplicity
 _atom_site_fract_x
 _atom_site_fract_y
 _atom_site_fract_z
 _atom_site_occupancy
 _atom_site_pbe_bader_charge
 _atom_site_pbe_bader_spin_density
 _atom_site_pbe_cm5_charge
 _atom_site_pbe_ddec_charge
 _atom_site_pbe_ddec_spin_density
 _atom_site_pbe_ddec_sum_bond_order
 _atom_site_pbe_magmom
Zn  Zn0  1  0.13642708  0.99152277  0.01766688  1  1.279707  0  0.670875  0.836598  0  2.337701  0
Zn  Zn1  1  0.89113478  0.97347551  0.98127397  1  1.300819  0  0.679325  0.876906  0  2.416511  0
H  H2  1  0.22439183  0.17133300  0.76405619  1  0.073062  0  0.097339  0.09764  0  1.016812  0
H  H3  1  0.95539759  0.24149770  0.20077890  1  0.102041  0  0.099721  0.102052  0  1.027992  0
H  H4  1  0.44234545  0.75861367  0.81768113  1  0.088987  0  0.095027  0.096806  0  1.037511  0
H  H5  1  0.57735822  0.16293990  0.22085103  1  0.070073  0  0.09966  0.100235  0  1.018988  0
H  H6  1  0.77955373  0.24853174  0.82110587  1  0.086704  0  0.098568  0.096095  0  1.04552  0
H  H7  1  0.05832944  0.80316755  0.72787750  1  0.096202  0  0.100546  0.105396  0  1.017214  0
H  H8  1  0.84300509  0.75156283  0.18418444  1  0.064209  0  0.099932  0.102216  0  1.037177  0
H  H9  1  0.21805604  0.77766359  0.25045998  1  0.077765  0  0.098456  0.096835  0  1.039119  0
H  H10  1  0.13762662  0.18510304  0.34294267  1  0.063334  0  0.099606  0.095822  0  0.997678  0
H  H11  1  0.55186177  0.66710595  0.18789526  1  0.038834  0  0.096456  0.089388  0  1.02657  0
H  H12  1  0.45090553  0.33657883  0.78197991  1  0.084156  0  0.090115  0.083433  0  1.089443  0
H  H13  1  0.56346086  0.20286366  0.65796769  1  0.053647  0  0.09772  0.092768  0  0.998819  0
H  H14  1  0.82875966  0.67215316  0.79972239  1  0.050145  0  0.096705  0.091361  0  1.022702  0
H  H15  1  0.46458885  0.79729472  0.31564495  1  0.061912  0  0.099133  0.093986  0  1.034837  0
H  H16  1  0.13882506  0.30984870  0.21485017  1  0.087215  0  0.092679  0.090614  0  1.051036  0
H  H17  1  0.81974854  0.79730064  0.66881920  1  0.054024  0  0.099169  0.093401  0  1.006791  0
H  H18  1  0.22566201  0.29779646  0.63795494  1  0.074835  0  0.098228  0.101666  0  1.018171  0
H  H19  1  0.83155078  0.37552478  0.31856069  1  0.073764  0  0.097487  0.101516  0  1.030696  0
H  H20  1  0.56339501  0.63843051  0.68455011  1  0.089489  0  0.099008  0.104131  0  1.010091  0
H  H21  1  0.45153114  0.29633095  0.34081959  1  0.112456  0  0.100938  0.106495  0  1.004473  0
H  H22  1  0.77819459  0.37547136  0.69591184  1  0.063503  0  0.100035  0.104447  0  1.010343  0
H  H23  1  0.17655791  0.68146626  0.59585101  1  0.06429  0  0.098164  0.101731  0  1.024179  0
H  H24  1  0.82279673  0.63124949  0.31456613  1  0.069273  0  0.097939  0.102376  0  1.018275  0
H  H25  1  0.20395841  0.65415384  0.37726822  1  0.073255  0  0.098283  0.102984  0  1.021775  0
H  H26  1  0.07753376  0.23556938  0.51299904  1  0.067683  0  0.101172  0.104222  0  1.016458  0
H  H27  1  0.59942390  0.49487383  0.23230284  1  0.067067  0  0.100281  0.10179  0  1.015299  0
H  H28  1  0.39473816  0.50602684  0.73452383  1  0.082304  0  0.10203  0.10579  0  1.016552  0
H  H29  1  0.61438953  0.24357854  0.48696843  1  0.059752  0  0.100033  0.102374  0  1.017354  0
H  H30  1  0.91394138  0.49887887  0.75864376  1  0.06229  0  0.101059  0.102719  0  1.015653  0
H  H31  1  0.41285787  0.75394855  0.48514931  1  0.05968  0  0.102212  0.104346  0  1.012252  0
H  H32  1  0.08377878  0.48239971  0.25540167  1  0.066768  0  0.100446  0.103566  0  1.016201  0
H  H33  1  0.90357797  0.74531949  0.50033540  1  0.065099  0  0.101734  0.105162  0  1.011263  0
H  H34  1  0.37612047  0.97778151  0.16248472  1  0.039283  0  0.089742  0.090329  0  1.028398  0
H  H35  1  0.41320482  0.80154788  0.04706320  1  0.112424  0  0.121195  0.121422  0  0.941969  0
H  H36  1  0.14866399  0.18021119  0.05064216  1  0.159723  0  0.116953  0.136405  0  0.999766  0
H  H37  1  0.58300556  0.22347827  0.95406673  1  0.087351  0  0.106908  0.12137  0  0.968056  0
H  H38  1  0.65249598  0.73593770  0.06877067  1  0.029485  0  0.10929  0.090183  0  0.974905  0
H  H39  1  0.63495017  0.94119501  0.13461594  1  0.086297  0  0.097758  0.11561  0  0.999616  0
H  H40  1  0.32497730  0.24711230  0.86470200  1  0.071512  0  0.103402  0.099212  0  0.998875  0
H  H41  1  0.59153630  0.05197296  0.95022450  1  0.085885  0  0.107983  0.131786  0  1.004886  0
H  H42  1  0.34751054  0.12488282  0.17886929  1  0.094825  0  0.112908  0.125486  0  1.011515  0
H  H43  1  0.38164662  0.86013513  0.20688015  1  0.046071  0  0.093632  0.095147  0  1.026869  0
H  H44  1  0.51324393  0.07217719  0.85198623  1  0.063653  0  0.109012  0.119692  0  0.984746  0
H  H45  1  0.59557789  0.20457455  0.82986266  1  0.054441  0  0.096912  0.097788  0  1.001559  0
H  H46  1  0.73587711  0.81987342  0.81012315  1  0.131515  0  0.114134  0.115616  0  1.049845  0
H  H47  1  0.63142688  0.84021845  0.21083012  1  0.034407  0  0.092059  0.094096  0  1.023249  0
H  H48  1  0.43424170  0.29646795  0.12155933  1  0.111916  0  0.115139  0.129789  0  0.988904  0
H  H49  1  0.48765452  0.93738280  0.81676666  1  0.072867  0  0.115904  0.13488  0  0.968505  0
C  C50  1  0.00166938  0.41929035  0.58116379  1  -0.059163  0  -0.000473  -0.025933  0  3.928794  0
C  C51  1  0.56359071  0.42398225  0.41207628  1  -0.063063  0  -0.00108  -0.026656  0  3.919505  0
C  C52  1  0.44503268  0.57430901  0.55597251  1  -0.006584  0  -0.000454  -0.022285  0  3.934634  0
C  C53  1  0.00377372  0.56129984  0.43287620  1  -0.051579  0  -0.00076  -0.026942  0  3.931788  0
C  C54  1  0.12705228  0.21692076  0.74893573  1  -0.067154  0  -0.089024  -0.092563  0  3.994181  0
C  C55  1  0.84466827  0.25448204  0.23086008  1  -0.094771  0  -0.08566  -0.086306  0  3.97784  0
C  C56  1  0.38506126  0.74179717  0.76827158  1  -0.138356  0  -0.090301  -0.091644  0  3.987773  0
C  C57  1  0.63224013  0.21013294  0.24254451  1  -0.046198  0  -0.089079  -0.094534  0  3.994555  0
C  C58  1  0.87669596  0.26006621  0.78078343  1  -0.05137  0  -0.08723  -0.090142  0  3.987765  0
C  C59  1  0.16899316  0.76661474  0.71739679  1  -0.019859  0  -0.082735  -0.080984  0  3.977379  0
C  C60  1  0.92063310  0.73044888  0.22776136  1  -0.034895  0  -0.088129  -0.092275  0  3.988347  0
C  C61  1  0.13192104  0.74512711  0.26440462  1  -0.037827  0  -0.088451  -0.090682  0  3.987193  0
C  C62  1  0.11321303  0.26160429  0.36228733  1  -0.025673  0  -0.098172  -0.091152  0  4.04874  0
C  C63  1  0.53331858  0.64744816  0.26320669  1  -0.031912  0  -0.098711  -0.089729  0  4.041603  0
C  C64  1  0.47495151  0.35362633  0.70637454  1  -0.04963  0  -0.102515  -0.094972  0  4.053604  0
C  C65  1  0.53757974  0.27863887  0.63618693  1  -0.058472  0  -0.097947  -0.089018  0  4.050339  0
C  C66  1  0.86312467  0.64965039  0.72466107  1  -0.000395  0  -0.099998  -0.092644  0  4.048917  0
C  C67  1  0.48185978  0.72125472  0.33518016  1  -0.008776  0  -0.099241  -0.095314  0  4.051183  0
C  C68  1  0.11370520  0.33232570  0.28943328  1  -0.126048  0  -0.10067  -0.089842  0  4.056658  0
C  C69  1  0.85904810  0.71993207  0.65112565  1  -0.062119  0  -0.095976  -0.089542  0  4.049428  0
C  C70  1  0.12739348  0.28735774  0.67824001  1  -0.046461  0  -0.090185  -0.138136  0  3.979547  0
C  C71  1  0.77481442  0.32953997  0.29699892  1  -0.018824  0  -0.090279  -0.133814  0  3.969925  0
C  C72  1  0.45239210  0.67446343  0.69387371  1  -0.019474  0  -0.09458  -0.146287  0  3.981283  0
C  C73  1  0.56210825  0.28485878  0.30966128  1  -0.093122  0  -0.092248  -0.145981  0  3.981006  0
C  C74  1  0.87651074  0.33115201  0.71085756  1  -0.082276  0  -0.091296  -0.139009  0  3.977926  0
C  C75  1  0.23575883  0.69901979  0.64356360  1  -0.075858  0  -0.092745  -0.139914  0  3.975626  0
C  C76  1  0.91031782  0.66269921  0.30031851  1  -0.051772  0  -0.092353  -0.140962  0  3.983768  0
C  C77  1  0.12311985  0.67627847  0.33603761  1  -0.048595  0  -0.091558  -0.138321  0  3.969983  0
C  C78  1  0.00178420  0.20187146  0.80060844  1  0.010518  0  -0.021532  -0.036326  0  3.962852  0
C  C79  1  0.77465571  0.19370818  0.20247527  1  -0.009794  0  -0.022058  -0.040041  0  3.963285  0
C  C80  1  0.24242733  0.78807479  0.78113150  1  -0.010894  0  -0.022803  -0.038401  0  3.966638  0
C  C81  1  0.03059545  0.77331521  0.20940312  1  -0.017035  0  -0.020777  -0.036125  0  3.962698  0
C  C82  1  0.07942090  0.28954399  0.45684731  1  -0.046642  0  -0.092817  -0.130109  0  3.990379  0
C  C83  1  0.55929762  0.55124286  0.28777180  1  -0.042075  0  -0.092284  -0.128628  0  3.991487  0
C  C84  1  0.44339968  0.44904986  0.68016502  1  -0.069942  0  -0.091869  -0.125207  0  3.991309  0
C  C85  1  0.56617778  0.30113450  0.54081211  1  -0.065425  0  -0.091481  -0.127538  0  3.984631  0
C  C86  1  0.91095156  0.55245555  0.70195248  1  -0.136021  0  -0.091644  -0.125298  0  3.990474  0
C  C87  1  0.45322614  0.69734522  0.42991047  1  -0.149262  0  -0.09068  -0.124017  0  3.994586  0
C  C88  1  0.08241872  0.42887784  0.31203396  1  -0.005169  0  -0.094324  -0.132459  0  3.993769  0
C  C89  1  0.90586865  0.69138318  0.55671536  1  -0.006074  0  -0.091297  -0.13011  0  3.994458  0
C  C90  1  0.00196555  0.34538805  0.65800487  1  0.009553  0  -0.002674  0.084889  0  3.999679  0
C  C91  1  0.63268761  0.34570126  0.33801339  1  -0.036386  0  -0.003409  0.082403  0  3.99891  0
C  C92  1  0.37813081  0.65122823  0.63132261  1  -0.017595  0  -0.0023  0.081656  0  4.001387  0
C  C93  1  0.01166833  0.63456346  0.35564485  1  0.005752  0  -0.003408  0.081792  0  4.004834  0
C  C94  1  0.04261657  0.38962865  0.48402907  1  -0.059284  0  -0.005478  0.035612  0  3.977832  0
C  C95  1  0.53416486  0.52273847  0.38569274  1  -0.017483  0  -0.005826  0.032353  0  3.982938  0
C  C96  1  0.47369188  0.47583113  0.58224092  1  0.017518  0  -0.004996  0.03552  0  3.984749  0
C  C97  1  0.53466226  0.39970246  0.50993921  1  0.00525  0  -0.004447  0.0354  0  3.974547  0
C  C98  1  0.95679409  0.51926428  0.60473933  1  0.076292  0  -0.006102  0.033143  0  3.984728  0
C  C99  1  0.47605566  0.59848055  0.45861232  1  0.036324  0  -0.006709  0.029204  0  3.998154  0
C  C100  1  0.04367162  0.46153230  0.40931297  1  -0.031945  0  -0.006535  0.034406  0  3.989131  0
C  C101  1  0.95684205  0.59100602  0.52986545  1  -0.0194  0  -0.007084  0.032958  0  3.989161  0
C  C102  1  0.00128326  0.12385042  0.87468043  1  1.56187  0  0.21289  0.592358  0  4.162858  0
C  C103  1  0.85260018  0.11308869  0.13052928  1  1.561972  0  0.212172  0.590302  0  4.161639  0
C  C104  1  0.16587266  0.85873702  0.86205803  1  1.590538  0  0.210257  0.58605  0  4.179893  0
C  C105  1  0.03764052  0.84902952  0.13324368  1  1.563692  0  0.214229  0.592369  0  4.162992  0
C  C106  1  0.32526836  0.18022659  0.12544117  1  -0.032255  0  -0.075604  -0.110462  0  3.735221  0
C  C107  1  0.46564852  0.85752492  0.05266060  1  -0.020645  0  -0.063495  -0.078578  0  3.754501  0
C  C108  1  0.36364382  0.09419700  0.98223670  1  0.63771  0  0.184894  0.322095  0  3.701191  0
C  C109  1  0.53038181  0.20517083  0.90186150  1  -0.022452  0  -0.147235  -0.139994  0  3.901228  0
C  C110  1  0.70384277  0.84244580  0.96693060  1  0.759897  0  0.144649  0.272292  0  4.074625  0
C  C111  1  0.59445923  0.87771728  0.14929313  1  -0.044863  0  -0.16124  -0.1814  0  3.809836  0
C  C112  1  0.31234286  0.26939902  0.00969014  1  -0.019779  0  -0.042926  -0.003888  0  3.873258  0
C  C113  1  0.52230318  0.90149260  0.87937706  1  0.03444  0  -0.098725  -0.216174  0  3.999756  0
C  C114  1  0.65874187  0.84402416  0.87540026  1  -0.075136  0  -0.037444  -0.068273  0  3.752035  0
C  C115  1  0.38144079  0.26214098  0.91620866  1  -0.093228  0  -0.079149  -0.089973  0  3.849702  0
C  C116  1  0.62422108  0.81478626  0.05806213  1  0.033185  0  -0.065191  -0.057726  0  3.79869  0
C  C117  1  0.43624091  0.90145077  0.15376067  1  -0.040825  0  -0.161278  -0.171957  0  3.840554  0
C  C118  1  0.25768913  0.18007976  0.03939833  1  -0.012383  0  -0.064971  -0.117679  0  3.83523  0
C  C119  1  0.50626513  0.10176349  0.92251827  1  -0.035393  0  -0.14377  -0.23507  0  3.787633  0
C  C120  1  0.44151683  0.92475911  0.97073996  1  0.409288  0  0.146376  0.29761  0  3.834859  0
C  C121  1  0.37119465  0.25895630  0.09478771  1  -0.152335  0  -0.07138  -0.095989  0  3.856016  0
N  N122  1  0.33584519  0.01059191  0.99531308  1  -1.254843  0  -0.331954  -0.340347  0  3.474223  0
N  N123  1  0.76847591  0.90496181  0.94385749  1  -1.118728  0  -0.351679  -0.41389  0  2.924287  0
O  O124  1  0.11483749  0.08601111  0.90173825  1  -1.167778  0  -0.318732  -0.561637  0  2.331509  0
O  O125  1  0.98419069  0.09932091  0.10445565  1  -1.178906  0  -0.316555  -0.559344  0  2.336208  0
O  O126  1  0.23145116  0.87214185  0.92379209  1  -1.171922  0  -0.317738  -0.557014  0  2.345399  0
O  O127  1  0.78350100  0.06474411  0.09998233  1  -1.162275  0  -0.314278  -0.544735  0  2.28758  0
O  O128  1  0.88832220  0.10071241  0.90504421  1  -1.159183  0  -0.316754  -0.538261  0  2.287214  0
O  O129  1  0.03882313  0.90102094  0.86425074  1  -1.165306  0  -0.310845  -0.541723  0  2.348252  0
O  O130  1  0.95154133  0.86266950  0.07891926  1  -1.174066  0  -0.313315  -0.554046  0  2.314054  0
O  O131  1  0.12888271  0.89507714  0.12846037  1  -1.166843  0  -0.319843  -0.540085  0  2.291483  0
