# generated using pymatgen
data_AlH12C17O9
_symmetry_space_group_name_H-M   'P 1'
_cell_length_a   6.71710348
_cell_length_b   19.54273349
_cell_length_c   19.74259403
_cell_angle_alpha   98.80278554
_cell_angle_beta   88.64014243
_cell_angle_gamma   88.54695893
_symmetry_Int_Tables_number   1
_chemical_formula_structural   AlH12C17O9
_chemical_formula_sum   'Al4 H48 C68 O36'
_cell_volume   2559.27076941
_cell_formula_units_Z   4
loop_
 _symmetry_equiv_pos_site_id
 _symmetry_equiv_pos_as_xyz
  1  'x, y, z'
loop_
 _atom_site_type_symbol
 _atom_site_label
 _atom_site_symmetry_multiplicity
 _atom_site_fract_x
 _atom_site_fract_y
 _atom_site_fract_z
 _atom_site_occupancy
 _atom_site_pbe_bader_charge
 _atom_site_pbe_bader_spin_density
 _atom_site_pbe_cm5_charge
 _atom_site_pbe_ddec_charge
 _atom_site_pbe_ddec_spin_density
 _atom_site_pbe_ddec_sum_bond_order
 _atom_site_pbe_magmom
Al  Al0  1  0.80197410  0.75326380  0.75221947  1  2.504489  0  0.402316  1.64177  0  2.558104  0
Al  Al1  1  0.20860929  0.25188790  0.25619182  1  2.503945  0  0.399871  1.641826  0  2.557615  0
Al  Al2  1  0.30165239  0.74676097  0.75153136  1  2.503135  0  0.401081  1.643512  0  2.562136  0
Al  Al3  1  0.70908361  0.25456710  0.25326790  1  2.50048  0  0.401656  1.641693  0  2.553106  0
H  H4  1  0.28559179  0.65473848  0.92666695  1  0.066786  0  0.112773  0.121183  0  0.976652  0
H  H5  1  0.65919238  0.39115284  0.10540671  1  0.130146  0  0.103718  0.100936  0  1.083216  0
H  H6  1  0.77205631  0.83466841  0.56740826  1  0.088966  0  0.111157  0.118075  0  0.985848  0
H  H7  1  0.17006636  0.12082871  0.40406299  1  0.117232  0  0.108038  0.110881  0  1.087136  0
H  H8  1  0.26519144  0.58010189  0.01572768  1  0.091547  0  0.104639  0.100982  0  1.041529  0
H  H9  1  0.69913412  0.46318941  0.01446900  1  0.138002  0  0.11012  0.115349  0  1.054687  0
H  H10  1  0.75870222  0.90939773  0.47786799  1  0.080082  0  0.104455  0.103398  0  1.028484  0
H  H11  1  0.19964947  0.04025177  0.48821880  1  0.144254  0  0.109872  0.114963  0  1.043304  0
H  H12  1  0.73015486  0.93733235  0.08353059  1  0.149411  0  0.106219  0.126841  0  1.074632  0
H  H13  1  0.32682193  0.05017916  0.94102993  1  0.176592  0  0.111846  0.130445  0  1.073213  0
H  H14  1  0.15161322  0.56093246  0.46248099  1  0.091919  0  0.111258  0.133746  0  0.997579  0
H  H15  1  0.86464440  0.44569967  0.53965105  1  0.099616  0  0.109849  0.128521  0  1.04033  0
H  H16  1  0.98178591  0.37100647  0.89671113  1  0.051744  0  0.096394  0.09313  0  0.996843  0
H  H17  1  0.87702864  0.38800776  0.81703135  1  0.088312  0  0.098659  0.100403  0  1.007611  0
H  H18  1  0.72738607  0.35136803  0.87822220  1  0.059349  0  0.115032  0.125135  0  0.958113  0
H  H19  1  0.46713238  0.50065556  0.14961675  1  0.052251  0  0.093825  0.090453  0  1.013782  0
H  H20  1  0.29819875  0.56256735  0.12166946  1  0.037151  0  0.098003  0.092488  0  0.997553  0
H  H21  1  0.55049608  0.55298162  0.08827984  1  0.071115  0  0.109181  0.118611  0  0.979348  0
H  H22  1  0.49212958  0.12371484  0.59452486  1  0.053186  0  0.097517  0.095756  0  0.998003  0
H  H23  1  0.38815887  0.11688176  0.67852371  1  0.059055  0  0.098637  0.10005  0  1.004404  0
H  H24  1  0.24188565  0.15406063  0.61735275  1  0.049995  0  0.114082  0.123714  0  0.95895  0
H  H25  1  0.00412140  0.99730877  0.34942295  1  0.046873  0  0.094973  0.091245  0  1.016282  0
H  H26  1  0.84240695  0.93137037  0.37045768  1  0.041754  0  0.095699  0.088309  0  0.999924  0
H  H27  1  0.08238186  0.94203865  0.40870235  1  0.073595  0  0.10971  0.118873  0  0.976122  0
H  H28  1  0.73530617  0.59216366  0.78330036  1  0.095146  0  0.108942  0.052499  0  1.011034  0
H  H29  1  0.40807658  0.38298962  0.17450392  1  0.078692  0  0.106214  0.029088  0  1.009936  0
H  H30  1  0.16138695  0.91551315  0.70534849  1  0.094191  0  0.109667  0.055876  0  0.98016  0
H  H31  1  0.92679515  0.10533188  0.32082484  1  0.112515  0  0.110057  0.03984  0  0.982135  0
H  H32  1  0.82787010  0.80619138  0.93084683  1  0.039216  0  0.101987  0.039118  0  0.997603  0
H  H33  1  0.16960505  0.19345707  0.07556345  1  0.067918  0  0.103416  0.041313  0  0.99408  0
H  H34  1  0.13235641  0.62063769  0.61002093  1  0.119746  0  0.111134  0.053171  0  0.994788  0
H  H35  1  0.88146607  0.38500881  0.38762596  1  0.121241  0  0.110032  0.057304  0  1.00069  0
H  H36  1  0.58825806  0.98970238  0.88895863  1  0.061537  0  0.101617  0.105433  0  0.992333  0
H  H37  1  0.44860162  0.03455634  0.83126889  1  0.10005  0  0.106955  0.115504  0  0.984425  0
H  H38  1  0.60192304  0.95955487  0.79857015  1  0.066549  0  0.109893  0.12218  0  0.977849  0
H  H39  1  0.70753069  0.94002714  0.19976619  1  0.043729  0  0.099151  0.094434  0  0.987966  0
H  H40  1  0.50429147  0.98662181  0.16820302  1  0.047772  0  0.107167  0.112377  0  0.970123  0
H  H41  1  0.57319490  0.00750866  0.25619921  1  0.069435  0  0.1042  0.10827  0  1.003117  0
H  H42  1  0.12163013  0.48093325  0.59957987  1  0.027808  0  0.097882  0.097595  0  1.011449  0
H  H43  1  0.95375778  0.44172316  0.65402693  1  0.082677  0  0.109609  0.118059  0  0.97279  0
H  H44  1  0.12523180  0.50532244  0.69075297  1  0.096489  0  0.113635  0.125056  0  0.966494  0
H  H45  1  0.27477786  0.44290864  0.26656640  1  0.066874  0  0.091475  0.082715  0  1.0531  0
H  H46  1  0.20703566  0.53301984  0.29269039  1  0.04761  0  0.092093  0.086266  0  0.99188  0
H  H47  1  0.02048506  0.47129758  0.26473470  1  0.059934  0  0.106174  0.116034  0  0.979783  0
H  H48  1  0.53389218  0.78405996  0.83842287  1  0.626517  0  0.34892  0.429171  0  0.85884  0
H  H49  1  0.46500878  0.25486210  0.16426996  1  0.614339  0  0.336449  0.422506  0  0.887488  0
H  H50  1  0.05938090  0.75693580  0.66264953  1  0.636807  0  0.351189  0.432686  0  0.853723  0
H  H51  1  0.95204220  0.24286823  0.34236272  1  0.658317  0  0.335144  0.419945  0  0.896063  0
C  C52  1  0.57849006  0.65074144  0.66342392  1  1.592533  0  0.27589  0.661843  0  4.073623  0
C  C53  1  0.43719236  0.35525879  0.34163770  1  1.573165  0  0.268217  0.646517  0  4.094728  0
C  C54  1  0.04056997  0.84422695  0.84582824  1  1.596529  0  0.270729  0.655665  0  4.098125  0
C  C55  1  0.97859509  0.15375397  0.16668687  1  1.612658  0  0.267547  0.645079  0  4.128326  0
C  C56  1  0.53775490  0.83728357  0.67712010  1  1.571507  0  0.270885  0.647449  0  4.084987  0
C  C57  1  0.46769890  0.16829440  0.33076544  1  1.540726  0  0.277703  0.646809  0  4.063099  0
C  C58  1  0.05446140  0.66047215  0.82258722  1  1.574718  0  0.272476  0.645557  0  4.089106  0
C  C59  1  0.95136087  0.33603920  0.17502565  1  1.559347  0  0.268811  0.632226  0  4.090415  0
C  C60  1  0.90887121  0.50599714  0.91085377  1  0.509569  0  0.104268  0.201083  0  3.951116  0
C  C61  1  0.18249976  0.44935995  0.05800073  1  0.505535  0  0.090188  0.173269  0  3.973227  0
C  C62  1  0.40441802  0.99323440  0.58884322  1  0.519572  0  0.101569  0.192691  0  3.959201  0
C  C63  1  0.68700683  0.04309510  0.43828392  1  0.48254  0  0.087704  0.166095  0  3.988593  0
C  C64  1  0.90916553  0.55206032  0.86207250  1  -0.003636  0  -0.018081  -0.105705  0  3.942047  0
C  C65  1  0.16134348  0.40068192  0.10278813  1  -0.05214  0  -0.017041  -0.092511  0  3.973003  0
C  C66  1  0.39758432  0.94679200  0.63699401  1  0.007801  0  -0.015357  -0.097582  0  3.929008  0
C  C67  1  0.66943453  0.09200515  0.39353428  1  -0.048082  0  -0.016797  -0.094572  0  3.98811  0
C  C68  1  0.04488759  0.60669196  0.86916659  1  -0.010806  0  0.000667  -0.037778  0  3.950988  0
C  C69  1  0.97051490  0.38225091  0.12243234  1  -0.022341  0  -0.013694  -0.07196  0  4.008718  0
C  C70  1  0.53169800  0.88899540  0.62854221  1  0.030737  0  -0.004178  -0.049906  0  3.956341  0
C  C71  1  0.48101723  0.11793748  0.37955836  1  0.026404  0  -0.01462  -0.071504  0  4.012542  0
C  C72  1  0.17777510  0.61366844  0.92287650  1  0.011417  0  -0.085085  -0.10774  0  4.003072  0
C  C73  1  0.80529777  0.40738096  0.09161626  1  -0.050417  0  -0.08849  -0.090947  0  4.001368  0
C  C74  1  0.66641074  0.87848582  0.57262747  1  -0.037453  0  -0.086109  -0.101407  0  4.003977  0
C  C75  1  0.31302075  0.09766331  0.41307240  1  -0.028401  0  -0.0899  -0.098387  0  3.999335  0
C  C76  1  0.16765530  0.57049855  0.97252336  1  -0.011813  0  -0.08029  -0.09224  0  3.990324  0
C  C77  1  0.82918877  0.44845390  0.04094409  1  -0.047631  0  -0.086077  -0.119709  0  3.983601  0
C  C78  1  0.66087965  0.92161892  0.52289820  1  -0.045201  0  -0.082317  -0.099438  0  3.995297  0
C  C79  1  0.33206453  0.05299887  0.46075519  1  -0.045039  0  -0.08533  -0.115307  0  3.988021  0
C  C80  1  0.03336158  0.51612149  0.96864164  1  -0.012996  0  -0.007066  -0.019396  0  3.95899  0
C  C81  1  0.01730367  0.47137395  0.02272968  1  0.026733  0  -0.003095  -0.001083  0  3.967265  0
C  C82  1  0.53041138  0.97967576  0.52907762  1  0.012341  0  -0.006395  -0.013819  0  3.968108  0
C  C83  1  0.51839483  0.02482456  0.47535874  1  0.016863  0  -0.002882  -0.004896  0  3.97608  0
C  C84  1  0.05751804  0.90358326  0.90306478  1  -0.021428  0  -0.000651  -0.146294  0  3.897045  0
C  C85  1  0.97735002  0.08987953  0.11360665  1  0.005088  0  0.001152  -0.132703  0  3.909677  0
C  C86  1  0.58466541  0.58971201  0.60833161  1  0.018171  0  -0.011272  -0.170356  0  3.91668  0
C  C87  1  0.43728086  0.41893003  0.39425281  1  -0.00106  0  -0.014889  -0.177529  0  3.922376  0
C  C88  1  0.83274634  0.97783035  0.07621049  1  0.053064  0  -0.104994  -0.263291  0  3.968236  0
C  C89  1  0.21782120  0.01102368  0.94598104  1  0.012429  0  -0.095526  -0.24276  0  3.943194  0
C  C90  1  0.27464065  0.52293754  0.45798381  1  0.003636  0  -0.099349  -0.250463  0  3.983871  0
C  C91  1  0.74630770  0.48520949  0.54532212  1  -0.023923  0  -0.107828  -0.276305  0  3.975866  0
C  C92  1  0.85315764  0.03505511  0.12606157  1  0.448645  0  0.089176  0.236904  0  4.056142  0
C  C93  1  0.21111982  0.95160797  0.89781915  1  0.503311  0  0.095951  0.247835  0  4.040609  0
C  C94  1  0.27668548  0.46954982  0.40355857  1  0.494245  0  0.084747  0.239437  0  4.044171  0
C  C95  1  0.74528753  0.53892041  0.59981459  1  0.498032  0  0.096917  0.255312  0  4.041345  0
C  C96  1  0.09482069  0.08367702  0.05371709  1  -0.035224  0  -0.008478  -0.035796  0  3.929814  0
C  C97  1  0.92910910  0.91170275  0.96104366  1  -0.03218  0  -0.014749  -0.043477  0  3.948158  0
C  C98  1  0.59454897  0.42567331  0.43949027  1  -0.039323  0  0.004814  0.001037  0  3.871919  0
C  C99  1  0.42828503  0.58355293  0.56306168  1  -0.005145  0  0.001673  -0.008358  0  3.907579  0
C  C100  1  0.08736685  0.02204757  0.00376378  1  -0.01674  0  0.001443  0.06976  0  3.976155  0
C  C101  1  0.94544234  0.97050843  0.01389374  1  -0.023834  0  0.001428  0.068898  0  3.972914  0
C  C102  1  0.59238108  0.47963322  0.49714117  1  0.007487  0  0.002697  0.07227  0  3.982852  0
C  C103  1  0.42875228  0.52919583  0.50608609  1  -0.010668  0  -0.006377  0.04587  0  4.013817  0
C  C104  1  0.84713292  0.38701819  0.87181012  1  0.369465  0  -0.131716  -0.161396  0  3.885499  0
C  C105  1  0.42311150  0.52559545  0.10562439  1  0.374341  0  -0.135206  -0.176688  0  3.913504  0
C  C106  1  0.35641809  0.11491011  0.62392310  1  0.40016  0  -0.131619  -0.160872  0  3.882145  0
C  C107  1  0.95382028  0.96910090  0.39065139  1  0.374106  0  -0.137505  -0.177557  0  3.922463  0
C  C108  1  0.77000300  0.54367899  0.80374103  1  0.955158  0  0.099073  0.287772  0  3.939486  0
C  C109  1  0.33940942  0.36260360  0.12493739  1  0.963153  0  0.113396  0.311257  0  3.962259  0
C  C110  1  0.24559015  0.96095333  0.69477365  1  0.95093  0  0.103902  0.2964  0  3.932512  0
C  C111  1  0.84760504  0.12745059  0.36972274  1  0.942577  0  0.115079  0.313461  0  3.94295  0
C  C112  1  0.79364953  0.85435161  0.96764312  1  0.961011  0  0.089873  0.267187  0  3.967521  0
C  C113  1  0.21612177  0.14388158  0.04276665  1  0.941816  0  0.10039  0.280788  0  3.933643  0
C  C114  1  0.25040016  0.63356898  0.57407750  1  0.953429  0  0.103905  0.302713  0  3.940617  0
C  C115  1  0.77511606  0.37688988  0.42926016  1  0.970811  0  0.102412  0.296157  0  3.929764  0
C  C116  1  0.50459298  0.98380764  0.84126276  1  0.359027  0  -0.132932  -0.173684  0  3.870646  0
C  C117  1  0.62926226  0.99079671  0.20354795  1  0.406834  0  -0.131523  -0.165984  0  3.904682  0
C  C118  1  0.02987619  0.48946276  0.64721395  1  0.371393  0  -0.130772  -0.174562  0  3.881941  0
C  C119  1  0.15957250  0.47935879  0.29239200  1  0.371012  0  -0.14031  -0.16571  0  3.927166  0
O  O120  1  0.37172827  0.82032029  0.70107620  1  -1.258427  0  -0.230955  -0.595835  0  2.38479  0
O  O121  1  0.63314871  0.18185400  0.30290559  1  -1.229598  0  -0.210194  -0.564345  0  2.409921  0
O  O122  1  0.89354254  0.69388835  0.81485131  1  -1.266201  0  -0.234677  -0.598419  0  2.377634  0
O  O123  1  0.11554144  0.30949957  0.19201407  1  -1.237539  0  -0.214013  -0.575031  0  2.426821  0
O  O124  1  0.73925551  0.67257028  0.68975741  1  -1.250844  0  -0.221914  -0.569668  0  2.394008  0
O  O125  1  0.27208906  0.33438953  0.31766212  1  -1.247935  0  -0.224561  -0.566104  0  2.367681  0
O  O126  1  0.19983619  0.80846620  0.82972709  1  -1.25288  0  -0.229681  -0.598081  0  2.402811  0
O  O127  1  0.81339178  0.18682910  0.17881698  1  -1.24425  0  -0.226948  -0.576539  0  2.346463  0
O  O128  1  0.70920405  0.81276656  0.68910981  1  -1.257121  0  -0.235497  -0.599573  0  2.326734  0
O  O129  1  0.29874050  0.19427679  0.31965075  1  -1.25341  0  -0.221707  -0.567443  0  2.350557  0
O  O130  1  0.22526573  0.67105101  0.79780679  1  -1.24185  0  -0.228491  -0.570267  0  2.309284  0
O  O131  1  0.78050567  0.32616943  0.20008401  1  -1.245772  0  -0.226551  -0.567449  0  2.335191  0
O  O132  1  0.87263357  0.83404878  0.81750603  1  -1.250064  0  -0.234069  -0.594854  0  2.309265  0
O  O133  1  0.14413781  0.16921010  0.19429064  1  -1.250052  0  -0.234306  -0.589747  0  2.336702  0
O  O134  1  0.40577533  0.67891905  0.67895514  1  -1.246273  0  -0.216483  -0.578929  0  2.385024  0
O  O135  1  0.60653743  0.32470151  0.32628643  1  -1.239327  0  -0.219387  -0.57735  0  2.380277  0
O  O136  1  0.54875414  0.75433885  0.79433361  1  -1.431918  0  -0.447623  -0.984691  0  2.157147  0
O  O137  1  0.46050509  0.25052427  0.21294504  1  -1.420327  0  -0.453971  -1.001733  0  2.190604  0
O  O138  1  0.05471991  0.74882259  0.70993628  1  -1.438719  0  -0.448141  -0.989397  0  2.185592  0
O  O139  1  0.95382092  0.25668512  0.29660498  1  -1.463854  0  -0.451914  -0.996761  0  2.178458  0
O  O140  1  0.77427957  0.45424781  0.90457958  1  -1.073811  0  -0.198105  -0.184208  0  2.593529  0
O  O141  1  0.36945260  0.47510429  0.04834585  1  -1.069958  0  -0.199042  -0.181992  0  2.53883  0
O  O142  1  0.27357526  0.04895780  0.59814045  1  -1.084508  0  -0.201141  -0.187742  0  2.585591  0
O  O143  1  0.87296379  0.01542588  0.44903120  1  -1.065127  0  -0.197724  -0.179796  0  2.553051  0
O  O144  1  0.69793581  0.48893872  0.77831225  1  -1.073049  0  -0.262726  -0.359298  0  2.132736  0
O  O145  1  0.41435151  0.31244892  0.08708521  1  -1.080228  0  -0.245678  -0.344858  0  2.144136  0
O  O146  1  0.21275458  0.01834412  0.72829739  1  -1.072212  0  -0.253644  -0.354867  0  2.151506  0
O  O147  1  0.90926351  0.17783655  0.40750531  1  -1.092539  0  -0.240427  -0.339538  0  2.188604  0
O  O148  1  0.65539471  0.85469495  0.00985351  1  -1.091225  0  -0.280203  -0.369661  0  2.117673  0
O  O149  1  0.35538708  0.14343343  0.00131123  1  -1.070869  0  -0.258539  -0.339889  0  2.124211  0
O  O150  1  0.22723660  0.68173416  0.54160993  1  -1.101228  0  -0.285345  -0.385523  0  2.074394  0
O  O151  1  0.81182283  0.33568590  0.46847997  1  -1.083231  0  -0.269124  -0.357043  0  2.10364  0
O  O152  1  0.34408808  0.93701843  0.84449125  1  -1.079508  0  -0.174421  -0.149238  0  2.602305  0
O  O153  1  0.76225546  0.04311965  0.18939806  1  -1.066489  0  -0.177872  -0.149212  0  2.580647  0
O  O154  1  0.88791420  0.54573309  0.64772874  1  -1.05308  0  -0.174319  -0.15398  0  2.628507  0
O  O155  1  0.11671848  0.46728820  0.36089100  1  -1.077209  0  -0.200374  -0.187332  0  2.565721  0
