# generated using pymatgen
data_ZnH7C12N3O4
_symmetry_space_group_name_H-M   'P 1'
_cell_length_a   7.99591513
_cell_length_b   12.64748626
_cell_length_c   17.59802419
_cell_angle_alpha   111.05108329
_cell_angle_beta   105.40873697
_cell_angle_gamma   90.02516962
_symmetry_Int_Tables_number   1
_chemical_formula_structural   ZnH7C12N3O4
_chemical_formula_sum   'Zn4 H28 C48 N12 O16'
_cell_volume   1592.06510740
_cell_formula_units_Z   4
loop_
 _symmetry_equiv_pos_site_id
 _symmetry_equiv_pos_as_xyz
  1  'x, y, z'
loop_
 _atom_site_type_symbol
 _atom_site_label
 _atom_site_symmetry_multiplicity
 _atom_site_fract_x
 _atom_site_fract_y
 _atom_site_fract_z
 _atom_site_occupancy
 _atom_site_pbe_bader_charge
 _atom_site_pbe_bader_spin_density
 _atom_site_pbe_cm5_charge
 _atom_site_pbe_ddec_charge
 _atom_site_pbe_ddec_spin_density
 _atom_site_pbe_ddec_sum_bond_order
 _atom_site_pbe_magmom
Zn  Zn0  1  0.41110665  0.14865310  0.39546409  1  1.301248  0  0.688964  0.801805  0  2.311782  0
Zn  Zn1  1  0.08927039  0.75302031  0.60451286  1  1.30035  0  0.688287  0.801289  0  2.313214  0
Zn  Zn2  1  0.58888419  0.85134640  0.60453449  1  1.30125  0  0.688953  0.801824  0  2.311774  0
Zn  Zn3  1  0.91072874  0.24697621  0.39548708  1  1.300397  0  0.688264  0.801289  0  2.313278  0
H  H4  1  0.10004496  0.57686338  0.28480447  1  0.090936  0  0.119649  0.088072  0  0.967055  0
H  H5  1  0.39998669  0.29202505  0.71499243  1  0.090476  0  0.119895  0.088159  0  0.96647  0
H  H6  1  0.89996001  0.42313921  0.71519566  1  0.090956  0  0.119664  0.088121  0  0.967002  0
H  H7  1  0.60001802  0.70797702  0.28500632  1  0.090587  0  0.119906  0.08819  0  0.966392  0
H  H8  1  0.01609706  0.72207295  0.40735408  1  0.155548  0  0.128795  0.1175  0  0.99324  0
H  H9  1  0.48417515  0.31467425  0.59246711  1  0.174905  0  0.128721  0.117058  0  0.993196  0
H  H10  1  0.98390692  0.27792590  0.59264569  1  0.155528  0  0.128791  0.117452  0  0.99329  0
H  H11  1  0.51582838  0.68532708  0.40753174  1  0.174965  0  0.128701  0.117052  0  0.993273  0
H  H12  1  0.39868621  0.29191228  0.27985528  1  0.150871  0  0.121679  0.09695  0  1.008899  0
H  H13  1  0.10135677  0.01167768  0.72005522  1  0.138544  0  0.121911  0.09727  0  1.009319  0
H  H14  1  0.60130782  0.70809083  0.72014783  1  0.15095  0  0.121672  0.096935  0  1.008808  0
H  H15  1  0.89863627  0.98831993  0.27994660  1  0.138433  0  0.12194  0.097321  0  1.009298  0
H  H16  1  0.45297033  0.25519777  0.14016343  1  0.048847  0  0.110898  0.117063  0  0.983305  0
H  H17  1  0.04688345  0.11464966  0.85969760  1  0.056283  0  0.110724  0.116727  0  0.981635  0
H  H18  1  0.54702601  0.74480624  0.85983890  1  0.048807  0  0.110848  0.117067  0  0.983353  0
H  H19  1  0.95310888  0.88534176  0.14030396  1  0.056329  0  0.110694  0.116725  0  0.981683  0
H  H20  1  0.44769185  0.89764711  0.10363193  1  0.05919  0  0.106331  0.110617  0  0.999956  0
H  H21  1  0.05250843  0.79378043  0.89649675  1  0.057711  0  0.106404  0.110547  0  0.999917  0
H  H22  1  0.55231580  0.10235804  0.89636997  1  0.059271  0  0.106384  0.110691  0  0.999768  0
H  H23  1  0.94751344  0.20620960  0.10350460  1  0.056374  0  0.106418  0.110588  0  0.999951  0
H  H24  1  0.38898449  0.94966201  0.24369247  1  0.137874  0  0.118967  0.100676  0  1.018704  0
H  H25  1  0.11122937  0.70569707  0.75640722  1  0.144366  0  0.118822  0.09985  0  1.017878  0
H  H26  1  0.61101009  0.05033965  0.75630662  1  0.137835  0  0.118964  0.100668  0  1.018698  0
H  H27  1  0.88878777  0.29429817  0.24359248  1  0.14384  0  0.11886  0.099949  0  1.01782  0
H  H28  1  0.49760254  0.12651410  0.01134829  1  0.058929  0  0.102478  0.09734  0  1.004116  0
H  H29  1  0.00202823  0.11495849  0.98833774  1  0.075606  0  0.102474  0.09686  0  1.003342  0
H  H30  1  0.50238812  0.87349018  0.98865168  1  0.059097  0  0.1025  0.097334  0  1.004125  0
H  H31  1  0.99797176  0.88502953  0.01166218  1  0.075397  0  0.102509  0.096839  0  1.003201  0
C  C32  1  0.19270744  0.54598048  0.49742374  1  0.5162  0  0.123156  0.050135  0  3.918155  0
C  C33  1  0.30762237  0.04841503  0.50244741  1  0.539744  0  0.12326  0.049837  0  3.917953  0
C  C34  1  0.80728746  0.45401755  0.50257511  1  0.516337  0  0.123149  0.050087  0  3.918348  0
C  C35  1  0.69237392  0.95158545  0.49755307  1  0.540051  0  0.123253  0.049814  0  3.918004  0
C  C36  1  0.22572098  0.46158407  0.42719778  1  0.586865  0  0.132552  0.07861  0  3.927062  0
C  C37  1  0.27449930  0.03426999  0.57268432  1  0.550224  0  0.133122  0.078901  0  3.930344  0
C  C38  1  0.77427717  0.53841685  0.57279974  1  0.586482  0  0.132535  0.078582  0  3.927131  0
C  C39  1  0.72550084  0.96573203  0.42731691  1  0.549915  0  0.13324  0.07912  0  3.930266  0
C  C40  1  0.12241567  0.56593335  0.34536312  1  0.52404  0  0.061425  0.062701  0  3.950802  0
C  C41  1  0.37770470  0.22052200  0.65446099  1  0.560241  0  0.060928  0.061598  0  3.949514  0
C  C42  1  0.87758656  0.43406786  0.65463560  1  0.524077  0  0.061395  0.062592  0  3.950799  0
C  C43  1  0.62229897  0.77948048  0.34553902  1  0.560536  0  0.060991  0.061689  0  3.949503  0
C  C44  1  0.07703150  0.64726877  0.41272516  1  0.529764  0  0.067866  0.083837  0  3.866736  0
C  C45  1  0.42319101  0.23448853  0.58710207  1  0.484163  0  0.06808  0.085911  0  3.864879  0
C  C46  1  0.92296854  0.35273092  0.58727457  1  0.529784  0  0.067876  0.083917  0  3.866781  0
C  C47  1  0.57681008  0.76551076  0.41289640  1  0.483739  0  0.06808  0.085894  0  3.864893  0
C  C48  1  0.24173391  0.54246200  0.58584010  1  1.651621  0  0.195184  0.545393  0  4.284002  0
C  C49  1  0.25892105  0.95646885  0.41404272  1  1.628049  0  0.193758  0.545523  0  4.286481  0
C  C50  1  0.75825591  0.45753495  0.41415846  1  1.65189  0  0.1951  0.545394  0  4.284412  0
C  C51  1  0.74107567  0.04352739  0.58595776  1  1.628221  0  0.193637  0.545377  0  4.28664  0
C  C52  1  0.28892573  0.34958577  0.42728938  1  1.583634  0  0.222748  0.568583  0  4.180341  0
C  C53  1  0.21095585  0.92228749  0.57268887  1  1.604459  0  0.223394  0.568645  0  4.18371  0
C  C54  1  0.71108396  0.65041505  0.57270816  1  1.583744  0  0.22278  0.568646  0  4.18007  0
C  C55  1  0.78903928  0.07771402  0.42731264  1  1.604496  0  0.223386  0.568584  0  4.18364  0
C  C56  1  0.40741129  0.20556590  0.23808608  1  0.540699  0  0.058522  0.115974  0  3.915447  0
C  C57  1  0.09263624  0.96711907  0.76184834  1  0.424424  0  0.058898  0.115428  0  3.916461  0
C  C58  1  0.59258869  0.79443794  0.76191527  1  0.540795  0  0.05855  0.116058  0  3.915273  0
C  C59  1  0.90736745  0.03287702  0.23815464  1  0.425053  0  0.058887  0.115375  0  3.916553  0
C  C60  1  0.43812780  0.18413573  0.15995185  1  -0.037254  0  -0.080395  -0.175002  0  3.924251  0
C  C61  1  0.06184280  0.02382920  0.83995859  1  0.035995  0  -0.080381  -0.173502  0  3.922751  0
C  C62  1  0.56186867  0.81586942  0.84005164  1  -0.037275  0  -0.080309  -0.175009  0  3.924187  0
C  C63  1  0.93815950  0.97616444  0.16004276  1  0.035141  0  -0.080256  -0.173353  0  3.922801  0
C  C64  1  0.45438552  0.07256829  0.10836351  1  -0.029812  0  0.003058  0.137984  0  4.048783  0
C  C65  1  0.04564816  0.96389338  0.89159770  1  0.017979  0  0.00254  0.136304  0  4.04868  0
C  C66  1  0.54561040  0.92743702  0.89163756  1  -0.029965  0  0.00301  0.137908  0  4.048827  0
C  C67  1  0.95435847  0.03609636  0.10840404  1  0.017734  0  0.002552  0.136268  0  4.048618  0
C  C68  1  0.43609759  0.98630269  0.13945988  1  -0.013626  0  -0.08555  -0.1776  0  3.951785  0
C  C69  1  0.06405106  0.84656673  0.86061411  1  -0.014154  0  -0.085276  -0.17685  0  3.948903  0
C  C70  1  0.56390389  0.01370298  0.86054333  1  -0.013659  0  -0.085663  -0.177735  0  3.951479  0
C  C71  1  0.93596232  0.15342458  0.13938414  1  -0.013007  0  -0.085292  -0.176942  0  3.948735  0
C  C72  1  0.40389474  0.01395936  0.21742077  1  0.475326  0  0.046061  0.091828  0  3.938655  0
C  C73  1  0.09626149  0.79623316  0.78263146  1  0.468603  0  0.046704  0.09385  0  3.936119  0
C  C74  1  0.59610621  0.98604350  0.78257875  1  0.475378  0  0.046097  0.091919  0  3.938505  0
C  C75  1  0.90374955  0.20376316  0.21737012  1  0.469438  0  0.046679  0.093802  0  3.935827  0
C  C76  1  0.48918095  0.05115021  0.02736157  1  -0.01516  0  -0.079086  -0.117477  0  3.976525  0
C  C77  1  0.01073750  0.02365010  0.97254383  1  -0.025662  0  -0.079165  -0.116661  0  3.970673  0
C  C78  1  0.51080967  0.94885526  0.97263874  1  -0.091932  0  -0.079122  -0.117383  0  3.976454  0
C  C79  1  0.98926243  0.97633735  0.02745552  1  -0.124555  0  -0.0791  -0.116451  0  3.970434  0
N  N80  1  0.11506581  0.63631892  0.48800793  1  -1.243749  0  -0.300836  -0.199505  0  3.546098  0
N  N81  1  0.38519408  0.14822771  0.51185125  1  -1.23559  0  -0.300953  -0.20011  0  3.545131  0
N  N82  1  0.88493038  0.36367924  0.51199105  1  -1.243782  0  -0.300855  -0.199536  0  3.546147  0
N  N83  1  0.61480599  0.85177374  0.48814940  1  -1.235547  0  -0.300989  -0.200159  0  3.545177  0
N  N84  1  0.19355977  0.47254214  0.35154232  1  -1.157402  0  -0.296947  -0.246434  0  3.2778  0
N  N85  1  0.30653048  0.12093970  0.64829537  1  -1.16841  0  -0.297286  -0.24648  0  3.278438  0
N  N86  1  0.80644369  0.52745862  0.64845596  1  -1.157309  0  -0.296923  -0.246346  0  3.277786  0
N  N87  1  0.69346829  0.87906164  0.35170515  1  -1.168423  0  -0.297384  -0.246688  0  3.278579  0
N  N88  1  0.39010300  0.12189310  0.26654064  1  -1.225417  0  -0.317276  -0.2163  0  3.486798  0
N  N89  1  0.11000288  0.85501932  0.73347318  1  -1.219008  0  -0.317707  -0.217601  0  3.487783  0
N  N90  1  0.60989727  0.87811007  0.73346174  1  -1.225543  0  -0.317303  -0.216427  0  3.487008  0
N  N91  1  0.89000272  0.14497601  0.26652648  1  -1.218981  0  -0.317748  -0.217632  0  3.487753  0
O  O92  1  0.20842004  0.62944901  0.64382416  1  -1.184368  0  -0.334526  -0.569595  0  2.325314  0
O  O93  1  0.29201059  0.98565536  0.35608042  1  -1.176018  0  -0.334303  -0.569495  0  2.325967  0
O  O94  1  0.79156393  0.37054011  0.35617328  1  -1.184416  0  -0.334452  -0.569654  0  2.325408  0
O  O95  1  0.70798843  0.01434178  0.64391928  1  -1.176054  0  -0.334248  -0.56943  0  2.326077  0
O  O96  1  0.30775585  0.45735739  0.59540505  1  -1.15633  0  -0.320431  -0.536168  0  2.152196  0
O  O97  1  0.19342031  0.86160153  0.40445744  1  -1.157425  0  -0.31959  -0.536801  0  2.153904  0
O  O98  1  0.69224169  0.54263496  0.40459152  1  -1.156494  0  -0.320394  -0.536134  0  2.152592  0
O  O99  1  0.80657906  0.13839847  0.59554515  1  -1.157625  0  -0.319531  -0.53671  0  2.153837  0
O  O100  1  0.44680494  0.33311927  0.43362317  1  -1.140461  0  -0.288249  -0.484163  0  2.222781  0
O  O101  1  0.05297017  0.89953140  0.56621690  1  -1.135725  0  -0.288044  -0.483714  0  2.221513  0
O  O102  1  0.55318547  0.66688319  0.56636896  1  -1.140421  0  -0.288315  -0.484248  0  2.222318  0
O  O103  1  0.94702283  0.10046787  0.43377975  1  -1.135676  0  -0.288023  -0.483679  0  2.221419  0
O  O104  1  0.17370945  0.26720579  0.40919682  1  -1.169746  0  -0.304841  -0.542521  0  2.422475  0
O  O105  1  0.32594872  0.85802744  0.59102570  1  -1.170341  0  -0.305473  -0.542982  0  2.423898  0
O  O106  1  0.82629057  0.73279214  0.59080198  1  -1.169784  0  -0.304816  -0.542476  0  2.42263  0
O  O107  1  0.67404680  0.14197573  0.40897835  1  -1.170438  0  -0.305488  -0.542943  0  2.423925  0
