# generated using pymatgen
data_Zr3H9C26S5ClO21
_symmetry_space_group_name_H-M   'P 1'
_cell_length_a   16.45710690
_cell_length_b   16.46142253
_cell_length_c   16.51863617
_cell_angle_alpha   61.89446531
_cell_angle_beta   59.88865125
_cell_angle_gamma   60.24290395
_symmetry_Int_Tables_number   1
_chemical_formula_structural   Zr3H9C26S5ClO21
_chemical_formula_sum   'Zr6 H18 C52 S10 Cl2 O42'
_cell_volume   3210.33525024
_cell_formula_units_Z   2
loop_
 _symmetry_equiv_pos_site_id
 _symmetry_equiv_pos_as_xyz
  1  'x, y, z'
loop_
 _atom_site_type_symbol
 _atom_site_label
 _atom_site_symmetry_multiplicity
 _atom_site_fract_x
 _atom_site_fract_y
 _atom_site_fract_z
 _atom_site_occupancy
 _atom_site_pbe_bader_charge
 _atom_site_pbe_bader_spin_density
 _atom_site_pbe_cm5_charge
 _atom_site_pbe_ddec_charge
 _atom_site_pbe_ddec_spin_density
 _atom_site_pbe_ddec_sum_bond_order
 _atom_site_pbe_magmom
Zr  Zr0  1  0.88835763  0.90229224  0.59789585  1  2.637798  0  1.628262  2.373534  0  2.779452  0
Zr  Zr1  1  0.11157439  0.10183253  0.39834721  1  2.639163  0  1.628006  2.37374  0  2.778978  0
Zr  Zr2  1  0.10284780  0.89374575  0.60664713  1  2.638351  0  1.622966  2.373527  0  2.739358  0
Zr  Zr3  1  0.89678173  0.11065920  0.38976393  1  2.638389  0  1.623216  2.373802  0  2.739568  0
Zr  Zr4  1  0.10908145  0.89292704  0.38886651  1  2.639813  0  1.61778  2.374602  0  2.726274  0
Zr  Zr5  1  0.89054032  0.11145952  0.60743317  1  2.63867  0  1.618862  2.375488  0  2.727559  0
H  H6  1  0.07870632  0.75249060  0.57634425  1  0.589946  0  0.33058  0.422784  0  0.858103  0
H  H7  1  0.09259218  0.08025754  0.24847950  1  0.619283  0  0.330847  0.423012  0  0.857927  0
H  H8  1  0.08344793  0.08171070  0.58973275  1  0.603377  0  0.331027  0.424029  0  0.854928  0
H  H9  1  0.74515279  0.09372132  0.57787123  1  0.598999  0  0.330885  0.423666  0  0.85547  0
H  H10  1  0.10136278  0.63646704  0.87132546  1  0.115228  0  0.105312  0.120939  0  1.022508  0
H  H11  1  0.84214793  0.65577584  0.85120102  1  0.127064  0  0.111495  0.13318  0  0.998287  0
H  H12  1  0.89126844  0.37504221  0.13251484  1  0.132583  0  0.105478  0.121452  0  1.021592  0
H  H13  1  0.15128366  0.35480654  0.15182078  1  0.154063  0  0.111676  0.133191  0  0.997639  0
H  H14  1  0.81363091  0.44956235  0.67890914  1  0.626847  0  0.338451  0.361623  0  0.874493  0
H  H15  1  0.17895410  0.56188569  0.31029875  1  0.622808  0  0.338815  0.362059  0  0.874591  0
H  H16  1  0.44991312  0.81305499  0.05872731  1  0.608657  0  0.338853  0.363198  0  0.872904  0
H  H17  1  0.55946803  0.18134001  0.94645611  1  0.582499  0  0.338488  0.361877  0  0.875211  0
H  H18  1  0.16818626  0.81036385  0.93923383  1  0.60064  0  0.337533  0.361761  0  0.87642  0
H  H19  1  0.82076990  0.18430590  0.06671322  1  0.609137  0  0.337153  0.361223  0  0.874829  0
H  H20  1  0.42687945  0.56977847  0.68122011  1  0.611924  0  0.337564  0.361675  0  0.87621  0
H  H21  1  0.58078998  0.44213354  0.30746179  1  0.604946  0  0.337761  0.362029  0  0.877413  0
H  H22  1  0.43620554  0.17107818  0.31932016  1  0.585226  0  0.337127  0.360279  0  0.878811  0
H  H23  1  0.57358261  0.82326708  0.66703644  1  0.61967  0  0.337192  0.360081  0  0.878812  0
C  C24  1  0.99617891  0.73859765  0.48368537  1  1.576175  0  0.220695  0.654793  0  4.160701  0
C  C25  1  0.28187781  0.98724192  0.23479617  1  1.56074  0  0.220403  0.655181  0  4.158397  0
C  C26  1  0.99677412  0.27240074  0.50589373  1  1.566092  0  0.221789  0.655354  0  4.15822  0
C  C27  1  0.72520419  0.00942170  0.76851468  1  1.56274  0  0.221529  0.654533  0  4.15978  0
C  C28  1  0.98117469  0.74061154  0.76578307  1  1.567881  0  0.235771  0.636902  0  4.102248  0
C  C29  1  0.73133051  0.00431840  0.48857154  1  1.581826  0  0.220448  0.653735  0  4.16558  0
C  C30  1  0.01274001  0.26958404  0.23666237  1  1.573677  0  0.235778  0.637384  0  4.102485  0
C  C31  1  0.27597662  0.99244975  0.50026110  1  1.615324  0  0.220402  0.653956  0  4.165435  0
C  C32  1  0.27266477  0.73017867  0.49731494  1  1.596113  0  0.221968  0.656548  0  4.155314  0
C  C33  1  0.99231373  0.99622478  0.77705141  1  1.556238  0  0.220868  0.655641  0  4.159221  0
C  C34  1  0.73408037  0.28087103  0.49240634  1  1.55987  0  0.221177  0.656566  0  4.157253  0
C  C35  1  0.99944300  0.00122234  0.22637642  1  1.584723  0  0.22182  0.656612  0  4.154337  0
C  C36  1  0.92701686  0.42184230  0.56570582  1  0.537114  0  0.08447  0.277361  0  4.086844  0
C  C37  1  0.06336841  0.59148884  0.42144906  1  0.603713  0  0.084371  0.276763  0  4.088668  0
C  C38  1  0.99418120  0.36368939  0.50300006  1  -0.048482  0  -0.036438  -0.229307  0  3.901955  0
C  C39  1  0.99627043  0.64958884  0.48419668  1  -0.125606  0  -0.03659  -0.230533  0  3.904893  0
C  C40  1  0.03759347  0.50862249  0.45110117  1  -0.145853  0  -0.041558  -0.140891  0  4.155876  0
C  C41  1  0.95217999  0.50525493  0.53542873  1  -0.136425  0  -0.040724  -0.140379  0  4.153886  0
C  C42  1  0.42456261  0.92440328  0.08814389  1  0.613234  0  0.084301  0.277533  0  4.088536  0
C  C43  1  0.58642592  0.06854062  0.91844908  1  0.604276  0  0.085303  0.279317  0  4.086943  0
C  C44  1  0.37072978  0.98724169  0.14616951  1  -0.122967  0  -0.036693  -0.230645  0  3.903071  0
C  C45  1  0.63978997  0.00608461  0.86010059  1  -0.13035  0  -0.036637  -0.229464  0  3.903362  0
C  C46  1  0.50818359  0.03822634  0.00197510  1  -0.156565  0  -0.041433  -0.142078  0  4.157115  0
C  C47  1  0.50359384  0.95400219  0.00528791  1  -0.165488  0  -0.041084  -0.140515  0  4.156458  0
C  C48  1  0.05804614  0.92700632  0.91781395  1  0.565356  0  0.084569  0.278382  0  4.08219  0
C  C49  1  0.92966356  0.06681920  0.08941067  1  0.596969  0  0.084493  0.278179  0  4.082114  0
C  C50  1  0.99273757  0.99429051  0.86636682  1  -0.080043  0  -0.037057  -0.232819  0  3.899118  0
C  C51  1  0.99542979  0.99996845  0.14042693  1  -0.153726  0  -0.036434  -0.231074  0  3.896218  0
C  C52  1  0.95248792  0.03973938  0.00846220  1  -0.134793  0  -0.042175  -0.143111  0  4.15625  0
C  C53  1  0.03459494  0.95352623  0.99936768  1  -0.15286  0  -0.041043  -0.140025  0  4.153924  0
C  C54  1  0.41322952  0.59274138  0.56339142  1  0.542024  0  0.084696  0.278941  0  4.080846  0
C  C55  1  0.59621223  0.42103664  0.42368247  1  0.599574  0  0.084917  0.278672  0  4.084167  0
C  C56  1  0.36353725  0.64391184  0.49634503  1  -0.114775  0  -0.036806  -0.230738  0  3.897027  0
C  C57  1  0.64582676  0.36979844  0.49081837  1  -0.131627  0  -0.037523  -0.23326  0  3.898192  0
C  C58  1  0.51162024  0.50264611  0.45013276  1  -0.138834  0  -0.041056  -0.139207  0  4.153462  0
C  C59  1  0.49840131  0.51174707  0.53635494  1  -0.12042  0  -0.041963  -0.143885  0  4.157037  0
C  C60  1  0.04225574  0.60738568  0.90023635  1  0.021002  0  -0.080345  -0.130906  0  3.927976  0
C  C61  1  0.89510476  0.61801766  0.88923757  1  -0.012428  0  -0.089922  -0.169282  0  3.973083  0
C  C62  1  0.88784525  0.53713327  0.96989278  1  -0.010379  0  0.016531  0.110781  0  4.018672  0
C  C63  1  0.95695848  0.48690511  0.02032971  1  0.063768  0  -0.00428  0.033312  0  3.970957  0
C  C64  1  0.95051818  0.40397878  0.10342712  1  0.005987  0  -0.080481  -0.13174  0  3.927611  0
C  C65  1  0.09801662  0.39295494  0.11408270  1  0.023846  0  -0.090181  -0.169312  0  3.972092  0
C  C66  1  0.10545404  0.47367587  0.03327052  1  -0.018564  0  0.016836  0.111461  0  4.019058  0
C  C67  1  0.03607082  0.52421465  0.98309402  1  0.044369  0  -0.004298  0.03281  0  3.971422  0
C  C68  1  0.97322578  0.65329051  0.85431799  1  -0.001807  0  -0.011523  -0.009069  0  3.97105  0
C  C69  1  0.01955181  0.35806002  0.14932355  1  -0.042284  0  -0.011576  -0.009126  0  3.972048  0
C  C70  1  0.41774740  0.05896610  0.42923534  1  0.617716  0  0.084824  0.278039  0  4.08581  0
C  C71  1  0.59406182  0.93334602  0.55499365  1  0.579924  0  0.084442  0.277627  0  4.087097  0
C  C72  1  0.36663120  0.99293882  0.49567685  1  -0.16703  0  -0.036953  -0.230721  0  3.908237  0
C  C73  1  0.64468958  0.99984973  0.48908918  1  -0.118088  0  -0.036596  -0.230184  0  3.908934  0
C  C74  1  0.51166821  0.95474591  0.53244640  1  -0.155439  0  -0.040832  -0.14069  0  4.161288  0
C  C75  1  0.50120391  0.03654557  0.45071473  1  -0.121226  0  -0.041007  -0.140792  0  4.160794  0
S  S76  1  0.08787299  0.41060019  0.40765763  1  0.22069  0  0.058075  0.1105  0  2.80465  0
S  S77  1  0.90189431  0.60326957  0.57890251  1  0.24037  0  0.057141  0.10978  0  2.804802  0
S  S78  1  0.41692334  0.08179353  0.09991527  1  0.24383  0  0.057428  0.110135  0  2.805677  0
S  S79  1  0.59449554  0.91077525  0.90703111  1  0.239483  0  0.057984  0.110244  0  2.803759  0
S  S80  1  0.90277520  0.08921400  0.91811670  1  0.241392  0  0.057402  0.110962  0  2.793739  0
S  S81  1  0.08452044  0.90428121  0.08951133  1  0.241334  0  0.058106  0.111666  0  2.791223  0
S  S82  1  0.42097213  0.59292426  0.40072532  1  0.232094  0  0.058096  0.110734  0  2.791386  0
S  S83  1  0.58904029  0.42151592  0.58577702  1  0.233795  0  0.057277  0.111191  0  2.79379  0
S  S84  1  0.42059027  0.90386158  0.58366518  1  0.229054  0  0.058763  0.111307  0  2.793701  0
S  S85  1  0.59189004  0.08782709  0.39995982  1  0.234484  0  0.058687  0.111104  0  2.793615  0
Cl  Cl86  1  0.20266445  0.51494505  0.99120209  1  -0.235275  0  -0.033363  -0.114351  0  1.433676  0
Cl  Cl87  1  0.79138832  0.49505596  0.01125452  1  -0.234395  0  -0.033386  -0.114293  0  1.432654  0
O  O88  1  0.92481763  0.77547021  0.55253854  1  -1.178525  0  -0.358983  -0.618471  0  2.281144  0
O  O89  1  0.24743838  0.05620806  0.27153411  1  -1.176356  0  -0.358319  -0.61835  0  2.279748  0
O  O90  1  0.06959291  0.23415724  0.43850673  1  -1.180292  0  -0.359523  -0.620253  0  2.277995  0
O  O91  1  0.75792083  0.94221347  0.73007574  1  -1.17524  0  -0.359968  -0.620256  0  2.279577  0
O  O92  1  0.05256143  0.77040053  0.73528974  1  -1.17631  0  -0.342325  -0.601495  0  2.266965  0
O  O93  1  0.76552922  0.07282673  0.42208241  1  -1.174489  0  -0.351939  -0.613964  0  2.24323  0
O  O94  1  0.94198606  0.23917883  0.26649552  1  -1.173153  0  -0.342218  -0.601494  0  2.267439  0
O  O95  1  0.23976444  0.92595008  0.56877803  1  -1.188854  0  -0.351722  -0.613952  0  2.242289  0
O  O96  1  0.24048275  0.76239522  0.42767507  1  -1.177559  0  -0.35401  -0.617161  0  2.250097  0
O  O97  1  0.92450977  0.06743119  0.74318358  1  -1.168888  0  -0.353212  -0.616851  0  2.252047  0
O  O98  1  0.76465462  0.24713884  0.56351499  1  -1.179216  0  -0.353467  -0.617374  0  2.250683  0
O  O99  1  0.06919376  0.93171374  0.25845478  1  -1.18278  0  -0.354365  -0.617686  0  2.249156  0
O  O100  1  0.06096279  0.92733872  0.73930386  1  -1.170933  0  -0.361786  -0.603461  0  2.278006  0
O  O101  1  0.77233040  0.24329172  0.42333464  1  -1.161609  0  -0.361587  -0.603802  0  2.277551  0
O  O102  1  0.93348487  0.07249320  0.26161413  1  -1.167131  0  -0.361746  -0.604053  0  2.276515  0
O  O103  1  0.23233776  0.76557058  0.56843926  1  -1.1681  0  -0.362261  -0.604536  0  2.277102  0
O  O104  1  0.91532583  0.77732768  0.72692146  1  -1.185012  0  -0.359107  -0.61579  0  2.300801  0
O  O105  1  0.23956121  0.06112300  0.43463086  1  -1.179489  0  -0.366095  -0.602933  0  2.306748  0
O  O106  1  0.08072017  0.23071758  0.27340395  1  -1.18554  0  -0.359297  -0.615961  0  2.301205  0
O  O107  1  0.76479244  0.93860382  0.55714506  1  -1.16607  0  -0.365909  -0.602436  0  2.30694  0
O  O108  1  0.75957743  0.07829102  0.73406375  1  -1.160981  0  -0.357999  -0.600146  0  2.266997  0
O  O109  1  0.06715293  0.77102193  0.41712944  1  -1.177336  0  -0.35778  -0.600704  0  2.26525  0
O  O110  1  0.24476161  0.92094008  0.26702692  1  -1.162313  0  -0.357953  -0.601069  0  2.264131  0
O  O111  1  0.92786325  0.23801171  0.57461456  1  -1.165194  0  -0.358513  -0.601093  0  2.266495  0
O  O112  1  0.81755887  0.06848399  0.55481515  1  -1.229122  0  -0.693158  -1.071796  0  2.359232  0
O  O113  1  0.05921271  0.05881017  0.56446850  1  -1.232297  0  -0.693136  -1.07223  0  2.358738  0
O  O114  1  0.06635263  0.05811300  0.31946049  1  -1.24972  0  -0.693856  -1.073149  0  2.363033  0
O  O115  1  0.05609584  0.82346537  0.55415081  1  -1.220832  0  -0.693723  -1.072867  0  2.363198  0
O  O116  1  0.13427271  0.95307930  0.45643463  1  -1.201085  0  -0.788459  -1.150214  0  2.123625  0
O  O117  1  0.95620982  0.96047219  0.44907589  1  -1.202642  0  -0.788507  -1.150261  0  2.123538  0
O  O118  1  0.95819896  0.13366655  0.45726118  1  -1.198559  0  -0.788826  -1.150518  0  2.123106  0
O  O119  1  0.95092974  0.96127549  0.62969106  1  -1.198479  0  -0.788952  -1.150596  0  2.12355  0
O  O120  1  0.84846945  0.39984514  0.64533166  1  -1.127852  0  -0.330026  -0.397129  0  2.278605  0
O  O121  1  0.14292513  0.61260896  0.34283229  1  -1.121235  0  -0.330276  -0.397111  0  2.278554  0
O  O122  1  0.40249562  0.84578536  0.10928197  1  -1.105087  0  -0.330261  -0.398544  0  2.277429  0
O  O123  1  0.60757419  0.14800003  0.89649598  1  -1.075389  0  -0.330334  -0.398151  0  2.280481  0
O  O124  1  0.13427699  0.84711684  0.89174563  1  -1.095714  0  -0.32956  -0.396717  0  2.279941  0
O  O125  1  0.85410005  0.14736693  0.11470444  1  -1.10292  0  -0.329325  -0.39663  0  2.280008  0
O  O126  1  0.38277338  0.61794954  0.64404771  1  -1.104781  0  -0.329711  -0.397236  0  2.281577  0
O  O127  1  0.62571849  0.39481978  0.34395391  1  -1.097738  0  -0.330005  -0.397454  0  2.283097  0
O  O128  1  0.39007669  0.13488492  0.35437960  1  -1.083046  0  -0.329219  -0.397361  0  2.294169  0
O  O129  1  0.62063477  0.85855337  0.63095471  1  -1.118279  0  -0.329314  -0.397108  0  2.294201  0
