# generated using pymatgen
data_Zr6H15C52S10O34F5
_symmetry_space_group_name_H-M   'P 1'
_cell_length_a   16.45220836
_cell_length_b   16.45235178
_cell_length_c   16.52532091
_cell_angle_alpha   61.76643107
_cell_angle_beta   59.84484995
_cell_angle_gamma   60.30279316
_symmetry_Int_Tables_number   1
_chemical_formula_structural   Zr6H15C52S10O34F5
_chemical_formula_sum   'Zr6 H15 C52 S10 O34 F5'
_cell_volume   3206.52814331
_cell_formula_units_Z   1
loop_
 _symmetry_equiv_pos_site_id
 _symmetry_equiv_pos_as_xyz
  1  'x, y, z'
loop_
 _atom_site_type_symbol
 _atom_site_label
 _atom_site_symmetry_multiplicity
 _atom_site_fract_x
 _atom_site_fract_y
 _atom_site_fract_z
 _atom_site_occupancy
 _atom_site_pbe_bader_charge
 _atom_site_pbe_bader_spin_density
 _atom_site_pbe_cm5_charge
 _atom_site_pbe_ddec_charge
 _atom_site_pbe_ddec_spin_density
 _atom_site_pbe_ddec_sum_bond_order
 _atom_site_pbe_magmom
Zr  Zr0  1  0.88763103  0.90275784  0.59740631  1  2.636662  0  1.630288  2.373135  0  2.783122  0
Zr  Zr1  1  0.11182376  0.10221033  0.39803874  1  2.639922  0  1.632568  2.37561  0  2.77539  0
Zr  Zr2  1  0.10198169  0.89332950  0.60716288  1  2.636803  0  1.623001  2.378436  0  2.733374  0
Zr  Zr3  1  0.89754752  0.11157761  0.38895143  1  2.635339  0  1.617737  2.374362  0  2.740557  0
Zr  Zr4  1  0.10885303  0.89315658  0.38901205  1  2.638497  0  1.619901  2.379118  0  2.725233  0
Zr  Zr5  1  0.89052090  0.11126590  0.60730670  1  2.638496  0  1.62012  2.378187  0  2.727852  0
H  H6  1  0.07713529  0.75256781  0.57713912  1  0.588847  0  0.331899  0.424951  0  0.853326  0
H  H7  1  0.09285502  0.08156078  0.24798706  1  0.627323  0  0.331885  0.425258  0  0.855297  0
H  H8  1  0.08310674  0.08145300  0.58996473  1  0.608671  0  0.331061  0.424711  0  0.854052  0
H  H9  1  0.74483674  0.09429564  0.57710421  1  0.596424  0  0.330987  0.424827  0  0.853007  0
H  H10  1  0.12549160  0.61156811  0.36207675  1  0.127841  0  0.123732  0.150313  0  0.96679  0
H  H11  1  0.60991133  0.12773862  0.89829923  1  0.113294  0  0.123516  0.149596  0  0.96606  0
H  H12  1  0.86808183  0.12537137  0.11681060  1  0.158228  0  0.120413  0.14562  0  0.971717  0
H  H13  1  0.62141557  0.39502635  0.36402507  1  0.131774  0  0.120535  0.146084  0  0.970806  0
H  H14  1  0.09959283  0.63965617  0.86780609  1  0.077636  0  0.106321  0.104184  0  1.032043  0
H  H15  1  0.84102704  0.65391537  0.85164060  1  0.108573  0  0.114577  0.141346  0  0.987759  0
H  H16  1  0.89247668  0.37266165  0.13483554  1  0.070651  0  0.103081  0.098524  0  1.038626  0
H  H17  1  0.15305031  0.35608175  0.14910799  1  0.127573  0  0.115835  0.143258  0  0.987135  0
H  H18  1  0.62112163  0.87680911  0.61058942  1  0.116785  0  0.123502  0.150051  0  0.969856  0
H  H19  1  0.18340510  0.56061497  0.94005764  1  0.600407  0  0.331827  0.36267  0  0.896783  0
H  H20  1  0.81684432  0.44402127  0.05564435  1  0.601709  0  0.327536  0.356294  0  0.905933  0
C  C21  1  0.99418420  0.73889167  0.48464681  1  1.581867  0  0.226299  0.643772  0  4.156341  0
C  C22  1  0.28172808  0.98819815  0.23497122  1  1.570438  0  0.223552  0.663284  0  4.154803  0
C  C23  1  0.99759859  0.27212719  0.50511188  1  1.573334  0  0.224573  0.6634  0  4.153305  0
C  C24  1  0.72434156  0.00865476  0.76799152  1  1.577  0  0.226647  0.643392  0  4.157702  0
C  C25  1  0.98002510  0.74072037  0.76567852  1  1.531002  0  0.2361  0.641091  0  4.089897  0
C  C26  1  0.73108632  0.00694314  0.48580154  1  1.585647  0  0.225849  0.643644  0  4.157987  0
C  C27  1  0.01287761  0.27036858  0.23597269  1  1.544593  0  0.23595  0.641185  0  4.08994  0
C  C28  1  0.27557871  0.99118401  0.50148299  1  1.606909  0  0.224136  0.664477  0  4.157403  0
C  C29  1  0.27216344  0.73002994  0.49681112  1  1.562693  0  0.224324  0.665827  0  4.147303  0
C  C30  1  0.99073475  0.99654579  0.77760859  1  1.584063  0  0.223225  0.663291  0  4.152396  0
C  C31  1  0.73395515  0.28156659  0.49296586  1  1.571337  0  0.225942  0.644812  0  4.152086  0
C  C32  1  0.00034138  0.00037841  0.22606472  1  1.575902  0  0.226714  0.646067  0  4.151125  0
C  C33  1  0.92753023  0.42217459  0.56301263  1  0.561035  0  0.10131  0.251891  0  4.086287  0
C  C34  1  0.06195377  0.59248937  0.42374149  1  0.064796  0  -0.086172  -0.132231  0  3.960051  0
C  C35  1  0.99525130  0.36382482  0.50137454  1  -0.093454  0  -0.03598  -0.249126  0  3.974215  0
C  C36  1  0.99363589  0.64897945  0.48662216  1  -0.172713  0  -0.021423  -0.118856  0  3.968062  0
C  C37  1  0.03715968  0.50984971  0.45179795  1  -0.163198  0  -0.019405  0.006756  0  4.084127  0
C  C38  1  0.95021849  0.50570348  0.53586105  1  -0.142224  0  -0.032812  -0.13897  0  4.114073  0
C  C39  1  0.42297531  0.92722321  0.08766681  1  0.571351  0  0.100847  0.252194  0  4.085823  0
C  C40  1  0.58902152  0.06592902  0.91766679  1  0.061002  0  -0.085769  -0.130214  0  3.957639  0
C  C41  1  0.37062791  0.98885159  0.14603237  1  -0.09584  0  -0.037231  -0.25177  0  3.974431  0
C  C42  1  0.63902742  0.00382958  0.86049311  1  -0.178498  0  -0.020621  -0.116956  0  3.966824  0
C  C43  1  0.51024913  0.03734357  0.00085966  1  -0.17355  0  -0.01953  0.004185  0  4.086395  0
C  C44  1  0.50271657  0.95372355  0.00465473  1  -0.12211  0  -0.032719  -0.13823  0  4.111741  0
C  C45  1  0.05697751  0.92978462  0.91704792  1  0.601342  0  0.100788  0.250884  0  4.079576  0
C  C46  1  0.92930007  0.06334863  0.09233443  1  -0.058226  0  -0.089083  -0.134048  0  3.962309  0
C  C47  1  0.99059804  0.99514647  0.86716098  1  -0.125979  0  -0.035851  -0.247222  0  3.961458  0
C  C48  1  0.99739138  0.99767522  0.13973190  1  -0.098866  0  -0.020204  -0.116853  0  3.956349  0
C  C49  1  0.95120094  0.03805365  0.01118657  1  -0.165394  0  -0.020193  0.006239  0  4.083906  0
C  C50  1  0.03585305  0.95312366  0.99900746  1  -0.143185  0  -0.033011  -0.138838  0  4.109775  0
C  C51  1  0.41431780  0.59382372  0.56050522  1  0.543497  0  0.100974  0.251989  0  4.078146  0
C  C52  1  0.59634362  0.41950875  0.42599936  1  -0.007337  0  -0.08865  -0.134178  0  3.961125  0
C  C53  1  0.36336984  0.64366917  0.49516851  1  -0.071072  0  -0.036451  -0.248874  0  3.961395  0
C  C54  1  0.64522484  0.37110879  0.49258644  1  -0.120652  0  -0.021036  -0.117749  0  3.957288  0
C  C55  1  0.51228163  0.50111813  0.45089699  1  -0.16662  0  -0.020079  0.007448  0  4.081147  0
C  C56  1  0.49924514  0.51265210  0.53642573  1  -0.125583  0  -0.033423  -0.140242  0  4.109216  0
C  C57  1  0.04189156  0.60755674  0.89915953  1  -0.037399  0  -0.095661  -0.16979  0  3.999745  0
C  C58  1  0.89466261  0.61730852  0.88871529  1  0.003028  0  -0.101126  -0.226969  0  3.947343  0
C  C59  1  0.88757410  0.53557470  0.96945904  1  0.47747  0  0.086215  0.275115  0  4.063786  0
C  C60  1  0.95736642  0.48664535  0.01930863  1  0.005355  0  -0.015733  -0.021637  0  4.021777  0
C  C61  1  0.95098636  0.40396399  0.10270934  1  -0.000465  0  -0.0988  -0.173577  0  4.010602  0
C  C62  1  0.09889948  0.39325454  0.11254733  1  -0.005678  0  -0.100725  -0.227269  0  3.944413  0
C  C63  1  0.10705966  0.47414728  0.03082776  1  0.449011  0  0.087853  0.277089  0  4.064115  0
C  C64  1  0.03630446  0.52410637  0.98186984  1  -0.009333  0  -0.01525  -0.02178  0  4.019636  0
C  C65  1  0.97218765  0.65325763  0.85374343  1  0.040584  0  -0.018584  -0.012435  0  4.018351  0
C  C66  1  0.02035251  0.35838749  0.14849489  1  -0.034024  0  -0.018655  -0.011818  0  4.021528  0
C  C67  1  0.41700237  0.05745332  0.43099540  1  0.537804  0  0.101313  0.251894  0  4.083331  0
C  C68  1  0.59589796  0.93592200  0.55149036  1  0.006692  0  -0.085934  -0.129525  0  3.957944  0
C  C69  1  0.36650579  0.99118786  0.49735979  1  -0.078308  0  -0.035925  -0.248979  0  3.972156  0
C  C70  1  0.64383243  0.00372689  0.48508191  1  -0.14604  0  -0.02172  -0.117015  0  3.9673  0
C  C71  1  0.51314907  0.95559780  0.53125525  1  -0.139727  0  -0.019091  0.006277  0  4.08654  0
C  C72  1  0.50059764  0.03830586  0.44927787  1  -0.137303  0  -0.033211  -0.138251  0  4.116318  0
S  S73  1  0.08874815  0.41180417  0.40804264  1  0.284495  0  0.093083  0.151103  0  2.742781  0
S  S74  1  0.89891482  0.60290652  0.58014185  1  0.286809  0  0.094942  0.159699  0  2.751044  0
S  S75  1  0.41997176  0.08113780  0.09890553  1  0.287164  0  0.09191  0.150748  0  2.743211  0
S  S76  1  0.59194278  0.91016545  0.90677749  1  0.283464  0  0.096593  0.161785  0  2.749755  0
S  S77  1  0.89990990  0.08714727  0.92200031  1  0.276402  0  0.086807  0.142093  0  2.731889  0
S  S78  1  0.08820155  0.90448005  0.08681885  1  0.29851  0  0.097236  0.16282  0  2.734506  0
S  S79  1  0.42081348  0.59014236  0.40189736  1  0.273323  0  0.08801  0.143869  0  2.731444  0
S  S80  1  0.59003503  0.42402957  0.58577213  1  0.293488  0  0.097364  0.163195  0  2.736705  0
S  S81  1  0.42265327  0.90319947  0.58371186  1  0.284792  0  0.093244  0.150876  0  2.727802  0
S  S82  1  0.58984966  0.09160085  0.39721929  1  0.287557  0  0.090168  0.151297  0  2.739074  0
O  O83  1  0.92258071  0.77719585  0.55214245  1  -1.17523  0  -0.357828  -0.617286  0  2.292037  0
O  O84  1  0.24750248  0.05653692  0.27220725  1  -1.174319  0  -0.35621  -0.613316  0  2.277307  0
O  O85  1  0.07064414  0.23330377  0.43850345  1  -1.181135  0  -0.357354  -0.614598  0  2.275664  0
O  O86  1  0.75672046  0.94285279  0.72820517  1  -1.173712  0  -0.357221  -0.617155  0  2.293295  0
O  O87  1  0.05163655  0.77101675  0.73470865  1  -1.1799  0  -0.352335  -0.61464  0  2.271296  0
O  O88  1  0.76629788  0.07512484  0.41977977  1  -1.176972  0  -0.353209  -0.617668  0  2.257259  0
O  O89  1  0.94177752  0.23946307  0.26624326  1  -1.182751  0  -0.356686  -0.622749  0  2.270759  0
O  O90  1  0.23884362  0.92480188  0.56990873  1  -1.179697  0  -0.351543  -0.612639  0  2.2385  0
O  O91  1  0.23964983  0.76257214  0.42738602  1  -1.174867  0  -0.35405  -0.616394  0  2.246718  0
O  O92  1  0.92294796  0.06736771  0.74354863  1  -1.174096  0  -0.353318  -0.616487  0  2.246939  0
O  O93  1  0.76525730  0.24681815  0.56361030  1  -1.170707  0  -0.350394  -0.613514  0  2.262594  0
O  O94  1  0.06926139  0.93129313  0.25922507  1  -1.179579  0  -0.35146  -0.614154  0  2.263163  0
O  O95  1  0.05972302  0.92772929  0.74015280  1  -1.177138  0  -0.361323  -0.61547  0  2.277379  0
O  O96  1  0.77099896  0.24523547  0.42329555  1  -1.177449  0  -0.360654  -0.61658  0  2.25996  0
O  O97  1  0.93417853  0.07250754  0.25973714  1  -1.178364  0  -0.360875  -0.617298  0  2.26071  0
O  O98  1  0.23212883  0.76495751  0.56809411  1  -1.166789  0  -0.362228  -0.61755  0  2.277307  0
O  O99  1  0.91440784  0.77841191  0.72621377  1  -1.176986  0  -0.362002  -0.619099  0  2.302983  0
O  O100  1  0.23964649  0.06017186  0.43555234  1  -1.177317  0  -0.367329  -0.616282  0  2.310596  0
O  O101  1  0.08012029  0.23085890  0.27372026  1  -1.181748  0  -0.358637  -0.61491  0  2.30332  0
O  O102  1  0.76325180  0.94048836  0.55503523  1  -1.184211  0  -0.362949  -0.612682  0  2.28918  0
O  O103  1  0.75826365  0.07777903  0.73461061  1  -1.178623  0  -0.357392  -0.611047  0  2.253306  0
O  O104  1  0.06607602  0.77012716  0.41792912  1  -1.178723  0  -0.356069  -0.610295  0  2.25098  0
O  O105  1  0.24452621  0.92184760  0.26692328  1  -1.168906  0  -0.360674  -0.613817  0  2.267253  0
O  O106  1  0.92826479  0.23800609  0.57391754  1  -1.168168  0  -0.361019  -0.613727  0  2.268315  0
O  O107  1  0.81722835  0.06917637  0.55403485  1  -1.225503  0  -0.693169  -1.069878  0  2.351926  0
O  O108  1  0.05883643  0.05850118  0.56479306  1  -1.237133  0  -0.692466  -1.069318  0  2.354291  0
O  O109  1  0.06647942  0.05845585  0.31900391  1  -1.254552  0  -0.694186  -1.071167  0  2.35949  0
O  O110  1  0.05532194  0.82358290  0.55386046  1  -1.215068  0  -0.69429  -1.071251  0  2.360137  0
O  O111  1  0.13360321  0.95317637  0.45663790  1  -1.202224  0  -0.788773  -1.149753  0  2.120052  0
O  O112  1  0.95593961  0.96113118  0.44838272  1  -1.202385  0  -0.788963  -1.148992  0  2.116778  0
O  O113  1  0.95811005  0.13413934  0.45698204  1  -1.197185  0  -0.790091  -1.149105  0  2.122586  0
O  O114  1  0.95017523  0.96133893  0.62965573  1  -1.20036  0  -0.790149  -1.149628  0  2.123561  0
O  O115  1  0.18477996  0.50430665  0.99871508  1  -1.113185  0  -0.352683  -0.435635  0  2.243997  0
O  O116  1  0.81184046  0.50310302  0.99992129  1  -1.120449  0  -0.35533  -0.436326  0  2.242573  0
F  F117  1  0.84813073  0.40253168  0.64119651  1  -0.621625  0  -0.087718  -0.107277  0  1.353357  0
F  F118  1  0.40089964  0.85020261  0.10627127  1  -0.615823  0  -0.087542  -0.107415  0  1.352654  0
F  F119  1  0.13476811  0.85172199  0.89124842  1  -0.622368  0  -0.088923  -0.107657  0  1.350756  0
F  F120  1  0.38697545  0.61847491  0.63971124  1  -0.623154  0  -0.089077  -0.108301  0  1.352259  0
F  F121  1  0.39059599  0.13330014  0.35658921  1  -0.624033  0  -0.086109  -0.105762  0  1.364671  0
