# generated using pymatgen
data_NiH21C27N7O5
_symmetry_space_group_name_H-M   'P 1'
_cell_length_a   9.65401701
_cell_length_b   13.66227989
_cell_length_c   13.66065823
_cell_angle_alpha   84.33995756
_cell_angle_beta   78.36690910
_cell_angle_gamma   78.30206795
_symmetry_Int_Tables_number   1
_chemical_formula_structural   NiH21C27N7O5
_chemical_formula_sum   'Ni2 H42 C54 N14 O10'
_cell_volume   1724.98530923
_cell_formula_units_Z   2
loop_
 _symmetry_equiv_pos_site_id
 _symmetry_equiv_pos_as_xyz
  1  'x, y, z'
loop_
 _atom_site_type_symbol
 _atom_site_label
 _atom_site_symmetry_multiplicity
 _atom_site_fract_x
 _atom_site_fract_y
 _atom_site_fract_z
 _atom_site_occupancy
 _atom_site_pbe_bader_charge
 _atom_site_pbe_bader_spin_density
 _atom_site_pbe_cm5_charge
 _atom_site_pbe_ddec_charge
 _atom_site_pbe_ddec_spin_density
 _atom_site_pbe_ddec_sum_bond_order
 _atom_site_pbe_magmom
Ni  Ni0  1  0.13995082  0.78750986  0.78816385  1  1.152263  -1.513312  0.659261  0.743253  -1.742971  2.573146  -1.5
Ni  Ni1  1  0.86035716  0.21170062  0.21294583  1  1.150869  -1.514267  0.65915  0.744599  -1.745522  2.571354  -1.501
H  H2  1  0.91774033  0.78882078  0.66517752  1  0.094942  -0.001967  0.12247  0.096042  -0.00064  0.991232  -0.001
H  H3  1  0.08434474  0.33354383  0.21084576  1  0.100283  -0.00196  0.12235  0.0953  -0.000639  0.991646  -0.001
H  H4  1  0.08167346  0.20865218  0.33672349  1  0.131024  -0.001938  0.122071  0.094905  -0.000633  0.993468  -0.001
H  H5  1  0.91930966  0.66322570  0.79060899  1  0.119898  -0.001953  0.122108  0.095085  -0.00064  0.992421  -0.001
H  H6  1  0.77312865  0.90959791  0.55650035  1  0.081499  -0.000842  0.104973  0.110087  -0.000398  1.016913  0.0
H  H7  1  0.22865288  0.44178605  0.08966743  1  0.094759  -0.000828  0.104979  0.111296  -0.000397  1.016311  0.0
H  H8  1  0.22883546  0.08635844  0.44269985  1  0.078174  -0.000833  0.104505  0.109362  -0.000395  1.021305  0.0
H  H9  1  0.77292574  0.55678638  0.91261568  1  0.086184  -0.000839  0.104684  0.109282  -0.000399  1.019163  0.0
H  H10  1  0.79161852  0.09319044  0.54858714  1  0.113622  5.1e-05  0.107247  0.111548  0.000126  1.041441  0.0
H  H11  1  0.20858146  0.45004524  0.90631872  1  0.160332  3.5e-05  0.107174  0.111494  0.000125  1.042334  0.0
H  H12  1  0.21172844  0.90275663  0.44785502  1  0.136648  4.5e-05  0.107122  0.112331  0.000127  1.043481  0.0
H  H13  1  0.78935552  0.55197221  0.09636022  1  0.145495  4e-05  0.107371  0.112143  0.000125  1.042643  0.0
H  H14  1  0.94250010  0.14470009  0.65367404  1  0.071475  -0.001576  0.111496  0.122219  -0.000729  0.981629  -0.001
H  H15  1  0.05614217  0.34563707  0.85544821  1  0.057238  -0.001587  0.111333  0.122553  -0.000726  0.980929  -0.001
H  H16  1  0.05922174  0.85278447  0.34285100  1  0.0489  -0.001592  0.111038  0.123367  -0.000729  0.980375  -0.001
H  H17  1  0.94057526  0.65762608  0.14667439  1  0.054303  -0.001589  0.111276  0.123338  -0.000729  0.980444  -0.001
H  H18  1  0.31923143  0.93821060  0.17093322  1  0.08212  -8.5e-05  0.09584  0.092663  -4.3e-05  1.030366  0.0
H  H19  1  0.68077446  0.82870376  0.06194068  1  0.080486  -8.6e-05  0.095615  0.09229  -4.4e-05  1.03047  0.0
H  H20  1  0.68047013  0.06365283  0.82823677  1  0.082693  -8.8e-05  0.095933  0.092654  -4.7e-05  1.029747  0.0
H  H21  1  0.31970744  0.17171565  0.93578327  1  0.078448  -8.9e-05  0.096323  0.092918  -4.7e-05  1.030139  0.0
H  H22  1  0.46250153  0.02376382  0.25604153  1  0.087931  -4e-05  0.093768  0.091619  -2.4e-05  1.045362  0.0
H  H23  1  0.53836780  0.74330318  0.97594003  1  0.086648  -4.1e-05  0.09362  0.091512  -2.5e-05  1.046077  0.0
H  H24  1  0.53780783  0.97839591  0.74225815  1  0.039222  -3.9e-05  0.093533  0.091744  -2.3e-05  1.043991  0.0
H  H25  1  0.46284338  0.25736144  0.02086764  1  0.082216  -3.5e-05  0.09351  0.091263  -2e-05  1.045548  0.0
H  H26  1  0.53676762  0.18262063  0.18022390  1  0.140761  -3e-06  0.101916  0.117643  5.2e-05  1.029789  0.0
H  H27  1  0.46423620  0.81901521  0.81696767  1  0.136654  -3e-06  0.102007  0.118144  5.2e-05  1.029849  0.0
H  H28  1  0.51896152  0.83802283  0.42589458  1  0.092346  -6.8e-05  0.105396  0.109757  -2e-06  0.99532  0.0
H  H29  1  0.48206918  0.57467967  0.16283522  1  0.086728  -6.9e-05  0.105161  0.10982  -2e-06  0.995428  0.0
H  H30  1  0.47621777  0.16394410  0.57399146  1  0.083544  -6.8e-05  0.105512  0.110379  -2e-06  0.994921  0.0
H  H31  1  0.52017519  0.42560792  0.83811559  1  0.090029  -6.7e-05  0.105734  0.110636  -2e-06  0.994804  0.0
H  H32  1  0.33977642  0.03290546  0.66541114  1  0.078946  -0.000265  0.097424  0.095436  -0.000134  1.0407  0.0
H  H33  1  0.65816816  0.33422680  0.96867259  1  0.083497  -0.000264  0.098161  0.096461  -0.000134  1.040302  0.0
H  H34  1  0.65594795  0.96896953  0.33464898  1  0.055211  -0.000277  0.097697  0.096226  -0.000141  1.039693  0.0
H  H35  1  0.34391656  0.66599690  0.03228857  1  0.044109  -0.000276  0.09768  0.096472  -0.000138  1.038651  0.0
H  H36  1  0.21500926  0.62537450  0.71531542  1  0.645212  0.000183  0.278931  0.373254  -7e-05  0.971776  0.0
H  H37  1  0.78491374  0.28529743  0.37470945  1  0.653853  0.000206  0.278887  0.3734  -5.6e-05  0.971511  0.0
H  H38  1  0.09989051  0.09990493  0.76163634  1  0.455204  8e-05  0.335941  0.288579  9.1e-05  0.908991  0.0
H  H39  1  0.89845401  0.23821471  0.90073532  1  0.457479  8.2e-05  0.336336  0.289059  9.2e-05  0.908726  0.0
H  H40  1  0.89790120  0.89949140  0.23767938  1  0.446272  8e-05  0.335076  0.28771  8.9e-05  0.909972  0.0
H  H41  1  0.10138567  0.76296116  0.10029035  1  0.479967  7.8e-05  0.335561  0.287625  8.9e-05  0.909763  0.0
H  H42  1  0.21494915  0.71425253  0.62639852  1  0.643008  0.000182  0.279648  0.374563  -6.1e-05  0.969574  0.0
H  H43  1  0.78727760  0.37396006  0.28582718  1  0.62382  0.000182  0.27973  0.374899  -7.5e-05  0.969153  0.0
C  C44  1  0.91688780  0.86894206  0.66168684  1  0.437934  0.003836  0.054781  0.112554  0.005038  3.935534  0.003
C  C45  1  0.08433816  0.33717567  0.13081981  1  0.451194  0.003844  0.054496  0.113032  0.005005  3.93727  0.003
C  C46  1  0.08316029  0.12851104  0.33898010  1  0.459681  0.004034  0.053839  0.111241  0.005146  3.935355  0.003
C  C47  1  0.91763234  0.66105728  0.87077931  1  0.455763  0.003959  0.05406  0.111019  0.005099  3.936057  0.003
C  C48  1  0.83946784  0.93593103  0.60022677  1  0.053076  -0.005071  -0.08992  -0.146582  -0.002955  3.992773  -0.004
C  C49  1  0.16161582  0.39841757  0.06361364  1  0.004804  -0.005073  -0.089694  -0.148013  -0.002939  3.991621  -0.004
C  C50  1  0.16196187  0.06066668  0.39892696  1  0.000926  -0.005124  -0.08907  -0.143218  -0.002942  3.993405  -0.004
C  C51  1  0.83919997  0.60088193  0.93846776  1  -0.009416  -0.005134  -0.088773  -0.142808  -0.002961  3.990741  -0.004
C  C52  1  0.84917442  0.03703095  0.59599783  1  -0.04386  0.005155  -0.065331  -0.006145  0.00583  3.967129  0.003
C  C53  1  0.15107547  0.40280934  0.96261713  1  -0.055828  0.005132  -0.066771  -0.00724  0.00579  3.963997  0.003
C  C54  1  0.15305962  0.95953099  0.40157358  1  0.005434  0.005328  -0.067636  -0.010538  0.006017  3.965975  0.003
C  C55  1  0.84776754  0.59838512  0.03968367  1  -0.02335  0.005282  -0.068031  -0.009785  0.005963  3.962546  0.003
C  C56  1  0.93340386  0.06627856  0.65471186  1  0.011422  -0.00508  -0.089422  -0.227272  -0.003055  3.957048  -0.004
C  C57  1  0.06597784  0.34452798  0.93375939  1  0.018064  -0.005016  -0.088982  -0.227907  -0.003037  3.956371  -0.004
C  C58  1  0.06778026  0.93118436  0.34306831  1  -0.052331  -0.005084  -0.089  -0.228998  -0.003056  3.958587  -0.004
C  C59  1  0.93233555  0.65724061  0.06821300  1  -0.017141  -0.0051  -0.089797  -0.229592  -0.003067  3.957753  -0.004
C  C60  1  0.00557386  0.99430478  0.71691452  1  0.920494  0.001032  0.231226  0.381515  0.002043  4.012528  0.001
C  C61  1  0.99396289  0.28254945  0.00592675  1  0.899256  0.001  0.232978  0.384123  0.002025  4.009808  0.001
C  C62  1  0.99394071  0.00404898  0.28256987  1  0.929018  0.001186  0.232892  0.383993  0.002207  4.012881  0.001
C  C63  1  0.00588459  0.71789433  0.99548829  1  0.924795  0.001169  0.233265  0.383159  0.002179  4.013687  0.001
C  C64  1  0.13416313  0.98427468  0.86065497  1  1.602728  -0.00202  0.363436  0.560963  -0.000484  4.089242  -0.001
C  C65  1  0.86499731  0.13909322  0.01627354  1  1.596453  -0.001915  0.363232  0.562177  -0.000423  4.086219  -0.001
C  C66  1  0.86461742  0.01564693  0.13911441  1  1.609322  -0.001816  0.364569  0.565157  -0.000323  4.085135  -0.001
C  C67  1  0.13474740  0.86142133  0.98411197  1  1.600033  -0.001881  0.363715  0.56306  -0.000392  4.085151  -0.001
C  C68  1  0.22899913  0.99789782  0.99675343  1  1.058502  -8e-06  0.25807  0.418123  0.00066  4.003279  0.0
C  C69  1  0.77053005  0.00295906  0.00246448  1  1.059313  7.7e-05  0.257561  0.416224  0.000731  4.007335  0.0
C  C70  1  0.30988008  0.04984105  0.04828038  1  0.021105  -0.000522  -0.012141  -0.005768  -0.000225  3.968321  0.0
C  C71  1  0.69011332  0.95130150  0.95026272  1  0.020452  -0.000529  -0.012205  -0.005804  -0.00023  3.96899  0.0
C  C72  1  0.35083623  0.00831561  0.13881955  1  -0.113578  -0.000125  -0.085861  -0.095795  7e-05  3.960633  0.0
C  C73  1  0.64937190  0.86073613  0.99170597  1  -0.078895  -9.7e-05  -0.085817  -0.095593  9.1e-05  3.961961  0.0
C  C74  1  0.64920781  0.99328952  0.85983113  1  -0.055715  -9.7e-05  -0.083019  -0.091653  8.7e-05  3.960963  0.0
C  C75  1  0.35106166  0.14006831  0.00614619  1  -0.061356  -0.00012  -0.083092  -0.091574  6.9e-05  3.962528  0.0
C  C76  1  0.43118017  0.05623460  0.18591576  1  -0.05244  2.5e-05  -0.095229  -0.08474  5.7e-05  4.005456  0.0
C  C77  1  0.56949604  0.81347127  0.94355302  1  -0.084285  1.8e-05  -0.095145  -0.084846  4.9e-05  4.005925  0.0
C  C78  1  0.56921496  0.94553851  0.81225277  1  0.043545  2.3e-05  -0.09688  -0.088212  5e-05  4.005508  0.0
C  C79  1  0.43139281  0.18745527  0.05379055  1  -0.110299  2.8e-05  -0.097182  -0.088399  6.1e-05  4.007812  0.0
C  C80  1  0.47221380  0.14590278  0.14376649  1  0.022502  -0.000193  -0.085097  -0.061401  -7.8e-05  3.933894  0.0
C  C81  1  0.52862189  0.85553433  0.85375402  1  -0.095506  -0.000161  -0.085118  -0.061679  -5.1e-05  3.932711  0.0
C  C82  1  0.33761414  0.85025988  0.60463902  1  1.596433  0.00026  0.202673  0.555993  0.00088  4.212911  0.001
C  C83  1  0.66324782  0.39585774  0.15038470  1  1.575591  0.000262  0.20569  0.561535  0.000913  4.209091  0.001
C  C84  1  0.65960385  0.15080986  0.39575763  1  1.569564  0.000242  0.202746  0.557603  0.000931  4.214075  0.001
C  C85  1  0.33883209  0.60433130  0.85066535  1  1.569123  0.000221  0.204698  0.561105  0.000908  4.207134  0.001
C  C86  1  0.42213013  0.92761222  0.55128996  1  0.020125  -0.007223  -0.015272  -0.024743  -0.004308  3.96288  -0.005
C  C87  1  0.57759219  0.44898165  0.07347375  1  -0.039549  -0.00734  -0.015882  -0.026369  -0.004364  3.964474  -0.005
C  C88  1  0.57363092  0.07412790  0.44880419  1  0.016034  -0.007345  -0.015086  -0.022843  -0.004409  3.961197  -0.006
C  C89  1  0.42465211  0.55128188  0.92751670  1  0.019169  -0.00728  -0.015977  -0.024812  -0.004371  3.963763  -0.006
C  C90  1  0.51109383  0.90949596  0.45780196  1  -0.132762  -0.001802  -0.087297  -0.108975  -0.000881  3.996605  -0.001
C  C91  1  0.48896843  0.54263268  0.09157122  1  -0.06761  -0.001763  -0.087264  -0.108482  -0.000874  3.993453  -0.001
C  C92  1  0.48427343  0.09240744  0.54212582  1  -0.061207  -0.001699  -0.088109  -0.11088  -0.000831  3.996655  -0.001
C  C93  1  0.51335619  0.45766744  0.90936194  1  -0.066798  -0.001747  -0.088541  -0.111379  -0.000861  3.997964  -0.001
C  C94  1  0.40928736  0.01974842  0.59270440  1  -0.075542  -0.000913  -0.09075  -0.1075  -0.000504  4.003661  0.0
C  C95  1  0.58918783  0.40715826  0.98170056  1  -0.093351  -0.000891  -0.09188  -0.108999  -0.000488  4.0044  0.0
C  C96  1  0.58627509  0.98205991  0.40729710  1  -0.049427  -0.000847  -0.092558  -0.11019  -0.000458  4.002474  0.0
C  C97  1  0.41307704  0.59311581  0.01924645  1  -0.026277  -0.000878  -0.09221  -0.110203  -0.000487  3.999653  0.0
N  N98  1  0.99924128  0.89641863  0.71916946  1  -1.204987  -0.070969  -0.322048  -0.306824  -0.041696  3.507159  -0.064
N  N99  1  0.00120849  0.28008526  0.10370360  1  -1.206412  -0.070807  -0.322128  -0.307208  -0.041572  3.50777  -0.064
N  N100  1  0.99996226  0.10187903  0.28158099  1  -1.206841  -0.070601  -0.321771  -0.306458  -0.041578  3.506021  -0.064
N  N101  1  0.00016228  0.71878337  0.89759809  1  -1.208771  -0.070881  -0.321198  -0.304976  -0.041728  3.506515  -0.064
N  N102  1  0.08670145  0.02776000  0.77605923  1  -1.249  -0.001348  -0.383052  -0.398323  -0.000275  3.578544  -0.002
N  N103  1  0.91212466  0.22372671  0.97281149  1  -1.234341  -0.001316  -0.384556  -0.400917  -0.000253  3.577841  -0.002
N  N104  1  0.91143683  0.97160838  0.22373800  1  -1.234223  -0.001318  -0.382773  -0.399652  -0.000263  3.577984  -0.002
N  N105  1  0.08789866  0.77689601  0.02813706  1  -1.258969  -0.001356  -0.383666  -0.399222  -0.000282  3.579404  -0.002
N  N106  1  0.11633805  0.89000799  0.88982369  1  -1.223178  -0.067645  -0.352208  -0.476565  -0.039317  3.4689  -0.058
N  N107  1  0.88297110  0.10992366  0.11055085  1  -1.214991  -0.067637  -0.352159  -0.478205  -0.039373  3.467019  -0.058
N  N108  1  0.19232347  0.04067336  0.90975087  1  -1.205856  -0.00693  -0.336432  -0.498248  -0.003674  3.223797  -0.005
N  N109  1  0.80693268  0.08999917  0.95980830  1  -1.208435  -0.006908  -0.336147  -0.497228  -0.003667  3.224332  -0.005
N  N110  1  0.80662160  0.95970656  0.08945010  1  -1.223363  -0.006854  -0.335939  -0.497392  -0.003634  3.226449  -0.005
N  N111  1  0.19286943  0.91101054  0.04004971  1  -1.216691  -0.00685  -0.335836  -0.496928  -0.003622  3.224925  -0.005
O  O112  1  0.29969144  0.85545073  0.69956863  1  -1.151379  -0.074715  -0.312195  -0.537702  -0.041964  2.370455  -0.069
O  O113  1  0.70061747  0.30085145  0.14549603  1  -1.143381  -0.074858  -0.312821  -0.539417  -0.042069  2.371929  -0.069
O  O114  1  0.69924238  0.14483455  0.30100015  1  -1.146142  -0.075082  -0.31281  -0.53894  -0.042256  2.370666  -0.069
O  O115  1  0.30079961  0.69930500  0.85561270  1  -1.144839  -0.074955  -0.313087  -0.53964  -0.042142  2.365931  -0.069
O  O116  1  0.30805114  0.78849603  0.55211575  1  -1.180549  -0.000856  -0.323854  -0.545811  0.000545  2.134428  -0.001
O  O117  1  0.69423476  0.44853448  0.21137872  1  -1.170136  -0.000794  -0.325196  -0.547814  0.000594  2.13147  -0.001
O  O118  1  0.68898002  0.21251920  0.44843401  1  -1.180358  -0.000807  -0.323953  -0.546401  0.000578  2.130881  -0.001
O  O119  1  0.30838633  0.55147216  0.78957862  1  -1.180174  -0.000829  -0.324211  -0.547457  0.000565  2.13253  -0.001
O  O120  1  0.15126893  0.68384050  0.68484750  1  -1.258398  -0.076069  -0.585604  -0.763184  -0.043013  2.147995  -0.064
O  O121  1  0.84990420  0.31507023  0.31655362  1  -1.248228  -0.076132  -0.585788  -0.764057  -0.043078  2.146256  -0.065
