# generated using pymatgen
data_Ni2H26C19(NO5)2
_symmetry_space_group_name_H-M   'P 1'
_cell_length_a   8.36732076
_cell_length_b   16.99672249
_cell_length_c   17.01176356
_cell_angle_alpha   117.35881302
_cell_angle_beta   99.47661321
_cell_angle_gamma   99.41619319
_symmetry_Int_Tables_number   1
_chemical_formula_structural   Ni2H26C19(NO5)2
_chemical_formula_sum   'Ni6 H78 C57 N6 O30'
_cell_volume   2038.83596668
_cell_formula_units_Z   3
loop_
 _symmetry_equiv_pos_site_id
 _symmetry_equiv_pos_as_xyz
  1  'x, y, z'
loop_
 _atom_site_type_symbol
 _atom_site_label
 _atom_site_symmetry_multiplicity
 _atom_site_fract_x
 _atom_site_fract_y
 _atom_site_fract_z
 _atom_site_occupancy
 _atom_site_pbe_bader_charge
 _atom_site_pbe_bader_spin_density
 _atom_site_pbe_cm5_charge
 _atom_site_pbe_ddec_charge
 _atom_site_pbe_ddec_spin_density
 _atom_site_pbe_ddec_sum_bond_order
 _atom_site_pbe_magmom
Ni  Ni0  1  0.03550984  0.84486259  0.06081573  1  1.195902  1.580039  0.630509  0.865844  1.795159  2.357954  1.569
Ni  Ni1  1  0.19093576  0.21616942  0.15488100  1  1.197271  1.579659  0.630857  0.867605  1.79664  2.3597  1.569
Ni  Ni2  1  0.97449459  0.93870751  0.78385131  1  1.195796  -1.579979  0.630419  0.865723  -1.795144  2.359161  -1.569
Ni  Ni3  1  0.59835955  0.15664377  0.93943347  1  1.198414  -1.581929  0.62594  0.868759  -1.797423  2.344974  -1.571
Ni  Ni4  1  0.44163439  0.78225885  0.84348610  1  1.202332  1.58256  0.626186  0.871031  1.794319  2.340525  1.572
Ni  Ni5  1  0.65924397  0.06080074  0.21707312  1  1.197303  -1.581264  0.625709  0.869767  -1.795642  2.343597  -1.571
H  H6  1  0.02174065  0.02094611  0.12179202  1  0.668072  0.001104  0.305929  0.410067  0.00072  0.912891  0.002
H  H7  1  0.00100550  0.10101971  0.97887435  1  0.661166  0.00124  0.306132  0.41084  0.000798  0.912146  0.002
H  H8  1  0.89970183  0.87782480  0.89886666  1  0.662293  -0.00116  0.305683  0.408909  -0.000778  0.914653  -0.002
H  H9  1  0.20673800  0.01867349  0.11338154  1  0.651584  0.001483  0.312435  0.411066  0.000933  0.899976  0.002
H  H10  1  0.18809209  0.09465197  0.98086603  1  0.652373  0.001622  0.312257  0.410739  0.001081  0.900073  0.002
H  H11  1  0.09296033  0.88590799  0.90511347  1  0.646775  -0.001608  0.312223  0.411521  -0.001045  0.900622  -0.002
H  H12  1  0.42258769  0.98132960  0.87848674  1  0.642187  -0.001429  0.306652  0.41016  -0.000996  0.91074  -0.002
H  H13  1  0.44159793  0.89699279  0.01883687  1  0.650697  0.001425  0.306256  0.410694  0.001017  0.91002  0.002
H  H14  1  0.54433999  0.12132934  0.10265094  1  0.659068  -0.001074  0.305611  0.408306  -0.000698  0.913543  -0.001
H  H15  1  0.61348558  0.98068469  0.88741474  1  0.636399  -0.001952  0.311912  0.409767  -0.001299  0.899702  -0.002
H  H16  1  0.63312385  0.90666171  0.01899485  1  0.652268  0.001982  0.312648  0.412181  0.001298  0.897602  0.002
H  H17  1  0.72637123  0.11235784  0.09318764  1  0.642739  -0.00164  0.313208  0.412125  -0.001005  0.897724  -0.002
H  H18  1  0.72309056  0.68989930  0.02400074  1  0.067446  -6e-05  0.118529  0.121086  -0.000152  0.991799  0.0
H  H19  1  0.03331701  0.33409954  0.30984639  1  0.07241  -0.000199  0.119289  0.12224  -0.000162  0.990997  0.0
H  H20  1  0.69848134  0.97604388  0.66646429  1  0.081952  6e-05  0.118587  0.121579  0.000157  0.990651  0.0
H  H21  1  0.72002333  0.60145555  0.91331793  1  0.07086  0.003404  0.104256  0.102477  0.001575  0.980498  0.002
H  H22  1  0.11812508  0.31127592  0.39798522  1  0.057552  0.003487  0.104553  0.103475  0.001578  0.979331  0.002
H  H23  1  0.80590222  0.08711904  0.68911315  1  0.043709  -0.003416  0.104486  0.102624  -0.001564  0.981417  -0.002
H  H24  1  0.93641421  0.62476138  0.85594854  1  0.061155  0.000645  0.114079  0.114067  0.000223  1.00014  0.0
H  H25  1  0.31118327  0.23042792  0.37445094  1  0.071649  0.001117  0.114357  0.113673  0.000465  1.001391  0.0
H  H26  1  0.08008254  0.14433191  0.76982962  1  0.067955  -0.000615  0.11506  0.115298  -0.000213  1.000837  0.0
H  H27  1  0.09743577  0.60873188  0.92185020  1  0.069284  0.001719  0.112228  0.114511  0.000791  1.014759  0.001
H  H28  1  0.48844374  0.31252668  0.39089891  1  0.097301  0.001803  0.111584  0.113942  0.000827  1.014266  0.001
H  H29  1  0.17507121  0.07882671  0.68766985  1  0.070174  -0.001724  0.111886  0.115018  -0.000789  1.012444  -0.001
H  H30  1  0.94166667  0.70034399  0.12060385  1  0.065276  -4.9e-05  0.111813  0.105316  -0.000153  0.993615  0.0
H  H31  1  0.24166417  0.42041777  0.29974650  1  0.065765  -0.000226  0.1117  0.104967  -0.000231  0.992409  0.0
H  H32  1  0.82017398  0.87998916  0.57979098  1  0.094546  4.2e-05  0.111338  0.103903  0.000152  0.993106  0.0
H  H33  1  0.14642783  0.72196327  0.11172316  1  0.128668  0.00147  0.107408  0.100424  0.000465  1.037363  0.001
H  H34  1  0.42465825  0.38971426  0.27806474  1  0.084827  0.001202  0.108212  0.101051  0.000342  1.036961  0.001
H  H35  1  0.03372450  0.88840836  0.61023302  1  0.098852  -0.00148  0.107549  0.1002  -0.000465  1.037657  -0.001
H  H36  1  0.29365433  0.44495562  0.98431747  1  0.04135  -6e-06  0.09183  0.094204  -2e-06  1.033903  0.0
H  H37  1  0.84915493  0.53959117  0.55483321  1  0.031885  0.000103  0.09247  0.095513  3.2e-05  1.033272  0.0
H  H38  1  0.30877988  0.01535366  0.46061159  1  0.021939  -9.8e-05  0.092611  0.095801  -3.2e-05  1.032685  0.0
H  H39  1  0.73435041  0.60373034  0.08163377  1  0.046921  2.3e-05  0.092156  0.123135  1.1e-05  1.037619  0.0
H  H40  1  0.13059876  0.47771391  0.39636847  1  0.023162  -3e-06  0.092129  0.123061  -1.2e-05  1.037627  0.0
H  H41  1  0.65190658  0.92003829  0.52286077  1  0.045151  -3.8e-05  0.091707  0.122812  -6e-06  1.037842  0.0
H  H42  1  0.66607013  0.49564209  0.07287770  1  0.031842  -0.000204  0.090012  0.125291  -0.000116  1.032763  0.0
H  H43  1  0.16994699  0.57657598  0.50465355  1  0.030169  0.000288  0.089744  0.124444  0.000145  1.034604  0.0
H  H44  1  0.59231108  0.93022158  0.42450919  1  0.053575  -0.000322  0.090124  0.125041  -0.000162  1.033796  0.0
H  H45  1  0.61450158  0.50733844  0.97462483  1  0.03476  9.5e-05  0.09307  0.123355  5.6e-05  1.006948  0.0
H  H46  1  0.10725798  0.46629130  0.49233781  1  0.036968  0.000113  0.092748  0.122973  5e-05  1.006986  0.0
H  H47  1  0.64176312  0.02799342  0.53497732  1  0.037965  -0.000121  0.093415  0.124259  -5e-05  1.006653  0.0
H  H48  1  0.35939751  0.68516434  0.13205280  1  0.032787  4.4e-05  0.091953  0.127558  1.9e-05  1.007138  0.0
H  H49  1  0.67407909  0.44683047  0.31479814  1  0.025986  2.8e-05  0.091961  0.127951  9e-06  1.00639  0.0
H  H50  1  0.22639927  0.86838492  0.55379029  1  0.025781  -5.5e-05  0.092407  0.128879  -2.3e-05  1.005725  0.0
H  H51  1  0.34968672  0.65540437  0.01695572  1  0.055433  8e-05  0.097988  0.14521  4e-06  0.986202  0.0
H  H52  1  0.69443668  0.36147172  0.34466117  1  0.070247  0.000109  0.097971  0.145283  5.4e-05  0.986176  0.0
H  H53  1  0.33198475  0.98367445  0.63899429  1  0.042806  -9.4e-05  0.097689  0.145467  -7e-06  0.985422  0.0
H  H54  1  0.44500981  0.59620103  0.06518826  1  0.047069  -7e-06  0.08907  0.125897  -4e-06  1.033105  0.0
H  H55  1  0.84887555  0.46896760  0.40373154  1  0.041844  9e-06  0.088737  0.125336  -4e-06  1.03292  0.0
H  H56  1  0.37918009  0.93515775  0.53167565  1  0.023088  -2.8e-05  0.089091  0.126626  -5e-06  1.032612  0.0
H  H57  1  0.16852076  0.29159951  0.90995457  1  0.02209  -8.2e-05  0.089325  0.123825  -3.7e-05  1.021508  0.0
H  H58  1  0.87746086  0.61860644  0.70809894  1  0.034777  8.5e-05  0.088859  0.123578  3.5e-05  1.022892  0.0
H  H59  1  0.25767927  0.08882226  0.38069873  1  0.014478  4.1e-05  0.088579  0.122783  2e-05  1.023579  0.0
H  H60  1  0.95581805  0.25450500  0.84317377  1  0.043637  -0.00022  0.092242  0.126973  -0.000113  1.012578  0.0
H  H61  1  0.70222240  0.58919732  0.74551253  1  0.02104  0.000333  0.092104  0.127382  0.000155  1.012612  0.0
H  H62  1  0.11254686  0.15610400  0.41021266  1  0.06239  2.5e-05  0.091952  0.126692  1e-05  1.013507  0.0
H  H63  1  0.00180461  0.25614190  0.94871051  1  0.053786  0.000128  0.100143  0.150551  9.6e-05  0.999025  0.0
H  H64  1  0.74607245  0.69284299  0.74333633  1  0.056027  7e-06  0.100188  0.14935  -4.2e-05  0.999779  0.0
H  H65  1  0.05186912  0.05011473  0.30679778  1  0.102113  -1.8e-05  0.100773  0.150673  8e-06  0.999252  0.0
H  H66  1  0.72556900  0.27545433  0.88089412  1  0.103661  -0.002681  0.107872  0.10124  -0.000974  1.029038  -0.002
H  H67  1  0.45047402  0.60495621  0.72419560  1  0.094087  0.002681  0.108602  0.102332  0.000971  1.028596  0.002
H  H68  1  0.84502517  0.11919783  0.39420796  1  0.125082  -0.002469  0.108483  0.102423  -0.000852  1.028199  -0.002
H  H69  1  0.60807379  0.35624074  0.91615381  1  0.051962  -0.000521  0.107529  0.094846  -0.00018  0.982944  0.0
H  H70  1  0.25220155  0.55941576  0.64339072  1  0.059301  0.000531  0.107299  0.095101  0.000182  0.983604  0.0
H  H71  1  0.69189652  0.08437016  0.43971171  1  0.049475  -0.000415  0.107704  0.095275  -0.000117  0.985106  0.0
H  H72  1  0.90776079  0.39914016  0.10280228  1  0.095843  -0.002293  0.110278  0.112105  -0.001045  1.007286  -0.001
H  H73  1  0.50867034  0.70402981  0.60109529  1  0.09119  0.002301  0.110969  0.113674  0.001042  1.00653  0.001
H  H74  1  0.80523172  0.89714157  0.29596039  1  0.082247  -0.00228  0.110555  0.112037  -0.00103  1.007718  -0.001
H  H75  1  0.76104015  0.36281970  0.15111040  1  0.059725  -0.001147  0.117222  0.11966  -0.00046  0.968872  0.0
H  H76  1  0.39783900  0.78849063  0.63772506  1  0.049572  0.001108  0.116621  0.118972  0.000445  0.97159  0.0
H  H77  1  0.60990997  0.84891309  0.21149255  1  0.065004  -0.001092  0.116786  0.118699  -0.00044  0.970667  0.0
H  H78  1  0.42173372  0.30989252  0.97131753  1  0.078986  0.000264  0.115371  0.117024  0.000216  1.01133  0.0
H  H79  1  0.11228318  0.66115499  0.69032609  1  0.074266  -0.000253  0.11493  0.116078  -0.000211  1.01239  0.0
H  H80  1  0.45060571  0.02860644  0.33835022  1  0.073167  0.000325  0.11455  0.115988  0.000235  1.012162  0.0
H  H81  1  0.53660872  0.39949476  0.08540732  1  0.051128  -0.003215  0.100103  0.094366  -0.001462  1.007319  -0.001
H  H82  1  0.13648389  0.68561712  0.60068298  1  0.038185  0.003172  0.099309  0.093621  0.001431  1.007119  0.001
H  H83  1  0.45105420  0.91437230  0.31356957  1  0.042863  -0.003183  0.099641  0.093647  -0.001441  1.006412  -0.001
C  C84  1  0.72179075  0.73496182  0.92767101  1  1.583381  -0.001889  0.213139  0.599465  0.000232  4.156317  -0.003
C  C85  1  0.98656804  0.19251406  0.26426551  1  1.599757  0.000838  0.212766  0.602838  0.000562  4.153029  0.001
C  C86  1  0.79362375  0.07211920  0.80779079  1  1.565847  0.001945  0.210348  0.597107  -0.000206  4.15717  0.003
C  C87  1  0.77637146  0.67464727  0.96547160  1  0.246403  0.006366  -0.07407  -0.235039  0.004421  3.92028  0.003
C  C88  1  0.10158517  0.29057161  0.32491810  1  0.242309  -0.005353  -0.074593  -0.237789  -0.002771  3.920084  -0.006
C  C89  1  0.81028793  0.03469228  0.70977821  1  0.258819  -0.006379  -0.073507  -0.234939  -0.004425  3.920257  -0.003
C  C90  1  0.03635493  0.66088984  0.92113417  1  0.243834  0.006446  -0.073145  -0.233066  0.004545  3.877265  0.003
C  C91  1  0.37522179  0.25979784  0.33863648  1  0.208605  -0.004476  -0.073771  -0.233608  -0.002231  3.879316  -0.005
C  C92  1  0.11483749  0.07913053  0.74040297  1  0.263796  -0.006416  -0.074399  -0.23518  -0.004547  3.875337  -0.003
C  C93  1  0.16186162  0.73304580  0.91530207  1  1.599267  -0.001154  0.212607  0.603497  0.000583  4.150738  -0.002
C  C94  1  0.42880432  0.18201137  0.26636751  1  1.579947  0.001351  0.212849  0.604433  0.000951  4.150502  0.002
C  C95  1  0.24632477  0.08455080  0.81811060  1  1.568406  0.001173  0.212362  0.602432  -0.000564  4.151365  0.002
C  C96  1  0.01951866  0.67617685  0.07316404  1  0.195554  -0.000799  -0.075477  -0.124387  -4.6e-05  3.883654  -0.002
C  C97  1  0.34350768  0.39689160  0.32378770  1  0.230816  -0.002289  -0.075259  -0.123129  -0.000995  3.881269  -0.003
C  C98  1  0.94572146  0.92732076  0.60333072  1  0.205781  0.00081  -0.074317  -0.119377  5.3e-05  3.881002  0.002
C  C99  1  0.02116349  0.57737536  0.04035195  1  -0.024103  0.002485  -0.025171  -0.041589  0.001499  3.910566  0.002
C  C100  1  0.44393128  0.46268231  0.42256553  1  0.060043  0.002744  -0.025358  -0.0435  0.001661  3.909566  0.002
C  C101  1  0.98048993  0.96048819  0.53767151  1  -0.019926  -0.002769  -0.026519  -0.045374  -0.00163  3.910131  -0.002
C  C102  1  0.17510035  0.55486532  0.03124545  1  -0.065897  0.000942  -0.012249  0.126478  0.000459  3.997761  0.001
C  C103  1  0.62045209  0.47631143  0.44506484  1  -0.026503  0.000982  -0.012174  0.128584  0.00049  3.995037  0.001
C  C104  1  0.14335978  0.96914459  0.52402397  1  -0.088247  -0.001121  -0.012405  0.125648  -0.000551  3.995935  -0.001
C  C105  1  0.17507109  0.46247933  0.99187008  1  -0.041578  -0.00028  -0.103913  -0.219981  -0.000147  3.987455  0.0
C  C106  1  0.71293719  0.52941356  0.53737764  1  -0.056006  0.000277  -0.105054  -0.224601  0.000171  3.988982  0.0
C  C107  1  0.18276728  0.00817295  0.47079213  1  0.019785  -0.00019  -0.104872  -0.222047  -0.00013  3.985974  0.0
C  C108  1  0.02910612  0.39127503  0.96064939  1  -0.02691  0.000977  -0.008242  0.138064  0.00058  3.984203  0.001
C  C109  1  0.63818731  0.56933485  0.60854773  1  -0.019606  0.001044  -0.006905  0.143619  0.000533  3.982311  0.001
C  C110  1  0.06804640  0.03928185  0.43059471  1  -0.046223  -0.001212  -0.007868  0.14083  -0.000635  3.98192  -0.001
C  C111  1  0.87703860  0.41368126  0.97444744  1  0.012297  -0.001768  -0.024244  -0.043687  -0.001  3.909346  -0.001
C  C112  1  0.46362288  0.56053706  0.58615997  1  -0.005558  0.001599  -0.024773  -0.046335  0.000903  3.910929  0.001
C  C113  1  0.90238637  0.02600469  0.43948902  1  -0.014423  -0.001495  -0.023904  -0.044098  -0.000857  3.908081  -0.001
C  C114  1  0.87494452  0.50702201  0.01626420  1  -0.062872  0.000865  -0.011384  0.081976  0.000472  3.935408  0.001
C  C115  1  0.36806282  0.50883412  0.49292013  1  -0.086936  0.000514  -0.011136  0.083324  0.000285  3.932051  0.0
C  C116  1  0.85857349  0.98486381  0.49151797  1  -0.039443  -0.00067  -0.011091  0.083956  -0.000371  3.930795  0.0
C  C117  1  0.71488757  0.52987445  0.03722849  1  -0.080377  5.4e-05  -0.242728  -0.413764  7e-06  3.998097  0.0
C  C118  1  0.18496224  0.50675817  0.47012763  1  -0.068937  0.000133  -0.241771  -0.412133  0.000128  3.998587  0.0
C  C119  1  0.67773531  0.96495502  0.49407013  1  -0.096002  -0.000165  -0.243064  -0.414837  -0.000148  4.000261  0.0
C  C120  1  0.34001227  0.62675182  0.06291569  1  -0.078093  0.00015  -0.238791  -0.409499  8.9e-05  3.94857  0.0
C  C121  1  0.71338135  0.43610846  0.37319135  1  -0.100075  0.000131  -0.238897  -0.410201  7.9e-05  3.946044  0.0
C  C122  1  0.27643192  0.93749550  0.56441151  1  -0.044197  -0.000163  -0.238422  -0.411225  -0.000102  3.946276  0.0
C  C123  1  0.03954561  0.29353179  0.91363500  1  -0.04303  -0.000151  -0.2397  -0.403854  -6.2e-05  3.929592  0.0
C  C124  1  0.74655963  0.62034804  0.70620183  1  -0.049311  0.000132  -0.2396  -0.403954  7.3e-05  3.930057  0.0
C  C125  1  0.12520430  0.08550028  0.37919570  1  -0.110932  0.000135  -0.239908  -0.403838  6.8e-05  3.930232  0.0
C  C126  1  0.71701958  0.33711793  0.94041166  1  0.20499  0.001714  -0.06927  -0.103567  0.000601  3.822634  0.003
C  C127  1  0.38012461  0.60291415  0.66262555  1  0.204503  -0.001691  -0.070476  -0.106446  -0.00059  3.827966  -0.003
C  C128  1  0.77666904  0.05985181  0.39655685  1  0.177741  0.001839  -0.070679  -0.106539  0.000705  3.828292  0.003
C  C129  1  0.81056013  0.33969172  0.09042719  1  0.235258  0.004442  -0.073515  -0.231614  0.002212  3.900404  0.005
C  C130  1  0.47067627  0.75077551  0.66057554  1  0.23844  -0.004513  -0.073512  -0.233846  -0.002236  3.906607  -0.005
C  C131  1  0.72020851  0.90960539  0.24904100  1  0.243434  0.004555  -0.072946  -0.230736  0.002242  3.903371  0.005
C  C132  1  0.89506717  0.26621354  0.08880963  1  1.578468  -0.002258  0.211421  0.600724  -0.001505  4.16522  -0.003
C  C133  1  0.62843504  0.82263680  0.73413482  1  1.580437  0.001681  0.212023  0.599964  0.001224  4.16044  0.003
C  C134  1  0.80606436  0.91117433  0.17714424  1  1.57417  -0.001521  0.212099  0.601578  -0.001134  4.163086  -0.003
C  C135  1  0.44578113  0.26590544  0.07025472  1  1.590218  -3e-06  0.20989  0.599715  1.5e-05  4.155142  0.0
C  C136  1  0.17967185  0.80412983  0.73422725  1  1.598562  -0.000319  0.210243  0.602494  -0.000176  4.154026  0.0
C  C137  1  0.37531620  0.92979081  0.19539335  1  1.6048  0.000322  0.21097  0.601423  0.000205  4.156151  0.0
C  C138  1  0.51767226  0.32697619  0.03338013  1  0.237249  0.005624  -0.075846  -0.249096  0.003039  3.945612  0.006
C  C139  1  0.19062174  0.70616897  0.67313135  1  0.251331  -0.005765  -0.076054  -0.249966  -0.003106  3.945429  -0.006
C  C140  1  0.48428073  0.96652583  0.29325593  1  0.243507  0.005743  -0.075935  -0.248066  0.003067  3.946505  0.006
N  N141  1  0.96090540  0.69828119  0.99912569  1  -0.952941  0.080699  -0.330405  -0.071525  0.047079  3.509453  0.07
N  N142  1  0.26257298  0.30068519  0.30147730  1  -0.969465  0.075263  -0.330059  -0.07138  0.044233  3.509162  0.066
N  N143  1  0.96125655  0.00108168  0.69956564  1  -0.984147  -0.080756  -0.330396  -0.073764  -0.047064  3.507822  -0.07
N  N144  1  0.67201632  0.30703518  0.00732381  1  -0.968561  -0.074433  -0.324757  -0.079897  -0.043685  3.477591  -0.065
N  N145  1  0.36488399  0.69993726  0.69280772  1  -0.967068  0.074364  -0.322904  -0.075303  0.043621  3.474906  0.065
N  N146  1  0.66475684  0.99264823  0.29958592  1  -0.955842  -0.074198  -0.322842  -0.078394  -0.043488  3.477353  -0.065
O  O147  1  0.82327457  0.81339883  0.95770467  1  -1.149873  0.067246  -0.294952  -0.530246  0.038721  2.365199  0.062
O  O148  1  0.00974872  0.14431840  0.18587300  1  -1.148883  0.068118  -0.295321  -0.533669  0.039666  2.365117  0.062
O  O149  1  0.86503184  0.04172325  0.85581362  1  -1.145157  -0.067175  -0.293177  -0.529241  -0.038612  2.365855  -0.062
O  O150  1  0.09295153  0.97995865  0.09705876  1  -1.256656  0.0418  -0.580067  -0.762703  0.024964  2.232617  0.038
O  O151  1  0.11364596  0.11787369  0.01970320  1  -1.252006  0.042639  -0.580803  -0.765342  0.025603  2.23165  0.038
O  O152  1  0.99581036  0.90247052  0.88269896  1  -1.246709  -0.042282  -0.579995  -0.76324  -0.025371  2.232627  -0.038
O  O153  1  0.53870662  0.02085563  0.90325194  1  -1.216386  -0.046204  -0.578802  -0.758578  -0.027605  2.224841  -0.041
O  O154  1  0.51778501  0.88132449  0.97920295  1  -1.240162  0.044729  -0.579044  -0.761878  0.026724  2.22476  0.04
O  O155  1  0.63520479  0.09599340  0.11688201  1  -1.238491  -0.044016  -0.578516  -0.758799  -0.026154  2.225736  -0.04
O  O156  1  0.57626905  0.70312659  0.87227302  1  -1.152683  0.064988  -0.312808  -0.548803  0.037624  2.384697  0.059
O  O157  1  0.87263737  0.16881031  0.29582125  1  -1.158818  -0.051234  -0.311706  -0.548684  -0.030145  2.384191  -0.048
O  O158  1  0.70373886  0.12764170  0.83164924  1  -1.129022  -0.064862  -0.311209  -0.546552  -0.037543  2.3847  -0.059
O  O159  1  0.17841569  0.81793564  0.96946219  1  -1.152439  0.062655  -0.29724  -0.53647  0.036228  2.388491  0.059
O  O160  1  0.36072522  0.15162678  0.18158041  1  -1.144751  0.06343  -0.29756  -0.538497  0.037046  2.390037  0.058
O  O161  1  0.20866942  0.03006845  0.84844572  1  -1.137718  -0.062752  -0.297164  -0.536461  -0.036163  2.390143  -0.059
O  O162  1  0.23890725  0.70130473  0.85420931  1  -1.162755  0.065086  -0.316295  -0.544558  0.037688  2.310489  0.059
O  O163  1  0.53756757  0.15245180  0.29790006  1  -1.149696  -0.051505  -0.316401  -0.54384  -0.030131  2.311249  -0.049
O  O164  1  0.38456458  0.14569900  0.84770578  1  -1.158524  -0.065008  -0.316264  -0.543429  -0.037559  2.310205  -0.058
O  O165  1  0.03618763  0.29628354  0.14765468  1  -1.158228  0.052321  -0.309968  -0.538673  0.030908  2.358489  0.05
O  O166  1  0.73929865  0.85175028  0.70422163  1  -1.158622  -0.052503  -0.309883  -0.537658  -0.030928  2.35519  -0.05
O  O167  1  0.88759316  0.85199569  0.14797187  1  -1.147723  0.052765  -0.310426  -0.539481  0.031079  2.357252  0.05
O  O168  1  0.81930829  0.18192786  0.03157311  1  -1.140793  -0.065005  -0.296276  -0.538934  -0.03794  2.389116  -0.059
O  O169  1  0.63691026  0.84940165  0.81830308  1  -1.135581  0.063452  -0.297497  -0.540183  0.037092  2.390307  0.058
O  O170  1  0.78810167  0.96871775  0.15044273  1  -1.147927  -0.062749  -0.296876  -0.540045  -0.036521  2.390561  -0.058
O  O171  1  0.36137711  0.29799572  0.12712954  1  -1.149231  0.052024  -0.308359  -0.535585  0.030574  2.33381  0.049
O  O172  1  0.06316089  0.82901204  0.70215596  1  -1.154531  -0.052277  -0.309462  -0.537674  -0.030548  2.332972  -0.049
O  O173  1  0.23392454  0.87290759  0.17051668  1  -1.157141  0.052292  -0.308937  -0.537039  0.030629  2.335569  0.049
O  O174  1  0.47350429  0.18702243  0.03930663  1  -1.145603  -0.067755  -0.297572  -0.532063  -0.039472  2.380588  -0.062
O  O175  1  0.28609211  0.85197685  0.81311123  1  -1.148507  0.065911  -0.296636  -0.533329  0.038446  2.376807  0.061
O  O176  1  0.43387848  0.96083553  0.14757070  1  -1.148764  -0.06558  -0.297577  -0.533271  -0.038167  2.378836  -0.061
