# generated using pymatgen
data_ZnH14(C2N)6
_symmetry_space_group_name_H-M   'P 1'
_cell_length_a   15.00576681
_cell_length_b   15.00586697
_cell_length_c   15.00589761
_cell_angle_alpha   69.65351981
_cell_angle_beta   72.19338742
_cell_angle_gamma   110.27324135
_symmetry_Int_Tables_number   1
_chemical_formula_structural   ZnH14(C2N)6
_chemical_formula_sum   'Zn4 H56 C48 N24'
_cell_volume   2599.47372364
_cell_formula_units_Z   4
loop_
 _symmetry_equiv_pos_site_id
 _symmetry_equiv_pos_as_xyz
  1  'x, y, z'
loop_
 _atom_site_type_symbol
 _atom_site_label
 _atom_site_symmetry_multiplicity
 _atom_site_fract_x
 _atom_site_fract_y
 _atom_site_fract_z
 _atom_site_occupancy
 _atom_site_pbe_bader_charge
 _atom_site_pbe_bader_spin_density
 _atom_site_pbe_cm5_charge
 _atom_site_pbe_ddec_charge
 _atom_site_pbe_ddec_spin_density
 _atom_site_pbe_ddec_sum_bond_order
 _atom_site_pbe_magmom
Zn  Zn0  1  0.36412363  0.50000123  0.13587450  1  1.201516  0  0.739395  0.63399  0  2.445556  0
Zn  Zn1  1  0.50000002  0.63663170  0.86336848  1  1.208793  0  0.747676  0.65631  0  2.368568  0
Zn  Zn2  1  0.63587783  0.50000323  0.86412275  1  1.20041  0  0.739364  0.633943  0  2.445596  0
Zn  Zn3  1  0.50000042  0.36337336  0.13662825  1  1.208773  0  0.747691  0.656369  0  2.36863  0
H  H4  1  0.14801719  0.31307425  0.17995569  1  0.074227  0  0.110618  0.093569  0  1.040988  0
H  H5  1  0.55236438  0.73675596  0.60319036  1  0.075959  0  0.11518  0.104922  0  0.993208  0
H  H6  1  0.40183221  0.73668955  0.21536043  1  0.027091  0  0.094619  0.100306  0  1.012767  0
H  H7  1  0.70123735  0.49605524  0.25064114  1  0.397518  0  0.290114  0.234219  0  0.979077  0
H  H8  1  0.84274249  0.50354473  0.11579099  1  0.023358  0  0.096066  0.104294  0  0.987559  0
H  H9  1  0.85281874  0.63610121  0.06287193  1  0.002749  0  0.085214  0.082803  0  1.000951  0
H  H10  1  0.79138361  0.54038974  0.02557721  1  0.075888  0  0.098066  0.108774  0  1.030424  0
H  H11  1  0.85427357  0.41568030  0.77377080  1  0.383931  0  0.297061  0.243952  0  0.95424  0
H  H12  1  0.00659152  0.59318572  0.67862643  1  0.021609  0  0.095851  0.100359  0  0.988817  0
H  H13  1  0.00460165  0.52662410  0.80467535  1  0.033789  0  0.083286  0.08319  0  1.037956  0
H  H14  1  0.95205624  0.61719482  0.78463423  1  0.033223  0  0.094607  0.100305  0  1.012825  0
H  H15  1  0.74669437  0.95188020  0.74935440  1  0.399298  0  0.290075  0.234194  0  0.979269  0
H  H16  1  0.49303808  0.32797321  0.82004423  1  0.069153  0  0.110597  0.093565  0  1.040994  0
H  H17  1  0.69897401  0.91569254  0.93712392  1  0.00223  0  0.085219  0.082818  0  1.001001  0
H  H18  1  0.56596641  0.81696190  0.97442055  1  0.087959  0  0.098066  0.108775  0  1.030381  0
H  H19  1  0.61933409  0.95853321  0.88420664  1  0.033476  0  0.096071  0.1043  0  0.987461  0
H  H20  1  0.33995227  0.15556394  0.39680570  1  0.078895  0  0.115177  0.104758  0  0.993377  0
H  H21  1  0.85198720  0.67203286  0.83493519  1  0.07417  0  0.110592  0.093549  0  1.040942  0
H  H22  1  0.44762239  0.84443809  0.81561264  1  0.092136  0  0.115187  0.104931  0  0.993282  0
H  H23  1  0.50697267  0.68692863  0.16505629  1  0.07487  0  0.110649  0.093641  0  1.040903  0
H  H24  1  0.66004975  0.26324250  0.18438919  1  0.078777  0  0.115182  0.104735  0  0.993412  0
H  H25  1  0.88534313  0.03010349  0.75269333  1  0.00131  0  0.090752  0.085271  0  1.028052  0
H  H26  1  0.94962511  0.34547992  0.85997209  1  0.033601  0  0.088921  0.081365  0  1.019359  0
H  H27  1  0.78279945  0.63803780  0.24730481  1  0.014058  0  0.090762  0.085261  0  1.028057  0
H  H28  1  0.20545233  0.80960216  0.14002975  1  0.041003  0  0.088939  0.081429  0  1.019372  0
H  H29  1  0.11465676  0.36196153  0.85524047  1  0.032958  0  0.090773  0.085273  0  1.028085  0
H  H30  1  0.05037373  0.19040099  0.60414565  1  0.032575  0  0.088938  0.081401  0  1.019388  0
H  H31  1  0.21720290  0.96990220  0.14475753  1  0.011346  0  0.090729  0.085214  0  1.028117  0
H  H32  1  0.79454516  0.65451929  0.39585574  1  0.035295  0  0.088923  0.081371  0  1.019361  0
H  H33  1  0.98727109  0.89424983  0.70728131  1  0.032648  0  0.095405  0.091736  0  0.998397  0
H  H34  1  0.86776080  0.30027487  0.09414073  1  0.035709  0  0.094609  0.091922  0  1.003913  0
H  H35  1  0.60153386  0.69455389  0.29271539  1  0.038264  0  0.095438  0.091791  0  0.998422  0
H  H36  1  0.39440680  0.96189467  0.90586077  1  0.02537  0  0.094605  0.09194  0  1.004034  0
H  H37  1  0.01272769  0.30544614  0.09301940  1  0.045543  0  0.095438  0.091769  0  0.998399  0
H  H38  1  0.13224602  0.03810522  0.56748419  1  0.044035  0  0.094605  0.091909  0  1.004012  0
H  H39  1  0.39847888  0.10575142  0.90698032  1  0.043101  0  0.095417  0.091831  0  0.998255  0
H  H40  1  0.60558019  0.69972019  0.43251619  1  0.026399  0  0.094619  0.091854  0  1.003908  0
H  H41  1  0.81054439  0.58430702  0.56142194  1  0.416787  0  0.297022  0.243814  0  0.954358  0
H  H42  1  0.72817402  0.40680015  0.58661157  1  0.010424  0  0.095867  0.100354  0  0.988873  0
H  H43  1  0.66870417  0.47337238  0.52202114  1  0.032409  0  0.08331  0.083205  0  1.037851  0
H  H44  1  0.59815759  0.38280564  0.66513804  1  0.043923  0  0.094644  0.100343  0  1.012806  0
H  H45  1  0.29877061  0.04812438  0.20517931  1  0.406903  0  0.290082  0.234192  0  0.979139  0
H  H46  1  0.15726270  0.04146450  0.33919648  1  0.037356  0  0.096061  0.104333  0  0.987476  0
H  H47  1  0.14718488  0.08430556  0.21671589  1  0.002033  0  0.085207  0.082811  0  1.00102  0
H  H48  1  0.20861641  0.18303714  0.25099428  1  0.071143  0  0.09805  0.108769  0  1.030422  0
H  H49  1  0.14572522  0.37195890  0.43859345  1  0.383664  0  0.297023  0.243895  0  0.954203  0
H  H50  1  0.99340805  0.31478742  0.41340444  1  0.013136  0  0.095856  0.100369  0  0.988786  0
H  H51  1  0.99539757  0.19072722  0.47797309  1  0.044122  0  0.083283  0.083176  0  1.037959  0
H  H52  1  0.04794647  0.26331825  0.33485653  1  0.029145  0  0.094592  0.100283  0  1.012796  0
H  H53  1  0.25329932  0.50394052  0.79482044  1  0.39315  0  0.290123  0.234211  0  0.979149  0
H  H54  1  0.38065656  0.49644641  0.66080640  1  0.029433  0  0.096071  0.104344  0  0.987519  0
H  H55  1  0.30101929  0.36389144  0.78329151  1  0.029971  0  0.085231  0.082803  0  1.000954  0
H  H56  1  0.43402963  0.45960516  0.74900929  1  0.065842  0  0.098096  0.108835  0  1.030346  0
H  H57  1  0.18944888  0.62803401  0.22623553  1  0.377261  0  0.297005  0.243911  0  0.954363  0
H  H58  1  0.27181587  0.68520353  0.32137946  1  0.040653  0  0.095881  0.100349  0  0.988848  0
H  H59  1  0.33129099  0.80926614  0.19533609  1  0.032842  0  0.083287  0.083167  0  1.037896  0
C  C60  1  0.20483395  0.36440492  0.09338927  1  0.441343  0  0.004584  -0.048961  0  4.005353  0
C  C61  1  0.59115671  0.68909293  0.62245543  1  0.423193  0  0.008528  -0.050956  0  4.018624  0
C  C62  1  0.45779788  0.29822409  0.90661056  1  0.438143  0  0.004614  -0.048995  0  4.0054  0
C  C63  1  0.31155261  0.21362051  0.37754111  1  0.402272  0  0.008481  -0.050903  0  4.018505  0
C  C64  1  0.79516715  0.70177991  0.84042611  1  0.43108  0  0.004626  -0.048909  0  4.005217  0
C  C65  1  0.40883397  0.78638332  0.90206629  1  0.387356  0  0.00852  -0.050986  0  4.018435  0
C  C66  1  0.54220934  0.63559890  0.15956723  1  0.413645  0  0.004578  -0.049048  0  4.005158  0
C  C67  1  0.68844931  0.31090673  0.09793380  1  0.405409  0  0.008522  -0.050783  0  4.018605  0
C  C68  1  0.67715773  0.59475699  0.62670459  1  0.86889  0  0.178325  0.237948  0  4.048152  0
C  C69  1  0.36840536  0.20185710  0.08678410  1  0.888966  0  0.19172  0.272421  0  4.007608  0
C  C70  1  0.22146415  0.30386818  0.37329845  1  0.826995  0  0.178298  0.237938  0  4.048296  0
C  C71  1  0.28863752  0.45518619  0.91321668  1  0.899933  0  0.191658  0.272216  0  4.007818  0
C  C72  1  0.32283475  0.69613299  0.08240266  1  0.815809  0  0.178273  0.237912  0  4.04817  0
C  C73  1  0.63159950  0.54481584  0.16654575  1  0.875727  0  0.191652  0.272218  0  4.007868  0
C  C74  1  0.77853761  0.40524128  0.91759862  1  0.836554  0  0.178301  0.238008  0  4.04811  0
C  C75  1  0.71135976  0.79814739  0.83344889  1  0.897841  0  0.191679  0.272387  0  4.007712  0
C  C76  1  0.18416027  0.37602820  0.00580886  1  -0.015907  0  -0.046892  -0.095572  0  4.115724  0
C  C77  1  0.65069101  0.66011037  0.55690381  1  -0.040825  0  -0.046111  -0.089624  0  4.1318  0
C  C78  1  0.38184190  0.18997066  0.99419275  1  -0.018016  0  -0.046905  -0.095585  0  4.115829  0
C  C79  1  0.21701919  0.20760297  0.44309703  1  0.014284  0  -0.046178  -0.089621  0  4.131767  0
C  C80  1  0.81583786  0.81003329  0.80812973  1  -0.031145  0  -0.046939  -0.09574  0  4.115777  0
C  C81  1  0.34929846  0.79239930  0.99058454  1  0.017226  0  -0.046111  -0.08958  0  4.13166  0
C  C82  1  0.61816545  0.62397284  0.19186609  1  -0.011895  0  -0.046933  -0.095612  0  4.1157  0
C  C83  1  0.78298257  0.33988625  0.00941928  1  0.013326  0  -0.046093  -0.089605  0  4.131688  0
C  C84  1  0.94734422  0.01446775  0.71201915  1  0.052252  0  -0.120145  -0.134675  0  4.089333  0
C  C85  1  0.95238858  0.33149308  0.93541774  1  -0.04046  0  -0.116067  -0.111631  0  4.098428  0
C  C86  1  0.72648988  0.65936263  0.28797937  1  -0.023685  0  -0.120081  -0.134665  0  4.089111  0
C  C87  1  0.26690894  0.88780779  0.06458596  1  -0.056296  0  -0.116085  -0.11172  0  4.098243  0
C  C88  1  0.05265923  0.34063894  0.93287123  1  -0.056351  0  -0.120119  -0.134678  0  4.08914  0
C  C89  1  0.04761102  0.11219526  0.62089607  1  -0.039644  0  -0.116055  -0.111648  0  4.098282  0
C  C90  1  0.27351447  0.98553716  0.06712365  1  -0.02415  0  -0.120025  -0.134456  0  4.089157  0
C  C91  1  0.73308763  0.66850606  0.37910505  1  -0.043287  0  -0.116087  -0.111623  0  4.098362  0
C  C92  1  0.92164635  0.90812593  0.74339848  1  -0.118752  0  -0.096267  -0.091583  0  4.040262  0
C  C93  1  0.86839619  0.31933665  0.01647450  1  -0.040703  0  -0.103801  -0.113566  0  4.049221  0
C  C94  1  0.65152531  0.66504766  0.25659692  1  -0.054773  0  -0.096303  -0.091644  0  4.040198  0
C  C95  1  0.33580767  0.88486885  0.98352721  1  -0.018865  0  -0.103825  -0.11365  0  4.049282  0
C  C96  1  0.07835394  0.33495078  0.01352379  1  -0.061879  0  -0.096301  -0.091633  0  4.040085  0
C  C97  1  0.13160732  0.11513173  0.54905520  1  -0.036802  0  -0.103802  -0.113579  0  4.049219  0
C  C98  1  0.34848379  0.09187884  0.98647869  1  -0.077578  0  -0.096353  -0.091833  0  4.040235  0
C  C99  1  0.66418270  0.68065698  0.45094248  1  -0.043752  0  -0.10386  -0.113528  0  4.049159  0
C  C100  1  0.67885933  0.44603579  0.59483961  1  0.284312  0  -0.147137  -0.207659  0  4.006464  0
C  C101  1  0.19867729  0.10617259  0.25362181  1  0.249072  0  -0.148483  -0.210934  0  3.973812  0
C  C102  1  0.04087543  0.27370458  0.40516516  1  0.282377  0  -0.147072  -0.20757  0  4.006526  0
C  C103  1  0.35979252  0.45229142  0.74638151  1  0.246313  0  -0.14851  -0.210959  0  3.973716  0
C  C104  1  0.32113245  0.72629221  0.23282851  1  0.265731  0  -0.147113  -0.207557  0  4.006594  0
C  C105  1  0.80132529  0.54770195  0.09249977  1  0.27592  0  -0.14847  -0.210826  0  3.973769  0
C  C106  1  0.95912477  0.55395811  0.76717454  1  0.27173  0  -0.147086  -0.207597  0  4.006605  0
C  C107  1  0.64020269  0.89382646  0.90749676  1  0.239276  0  -0.148456  -0.210776  0  3.973665  0
N  N108  1  0.31077816  0.42962352  0.05685589  1  -0.777381  0  -0.285543  -0.183129  0  3.630987  0
N  N109  1  0.58312667  0.64608957  0.72135332  1  -0.802935  0  -0.268319  -0.165616  0  3.574452  0
N  N110  1  0.48648237  0.36763489  0.94314190  1  -0.760812  0  -0.28552  -0.183045  0  3.630948  0
N  N111  1  0.36744399  0.30448709  0.27864263  1  -0.806825  0  -0.268195  -0.165365  0  3.574439  0
N  N112  1  0.68922500  0.63236977  0.88115123  1  -0.774081  0  -0.285546  -0.183111  0  3.630968  0
N  N113  1  0.41686773  0.69551671  0.93703932  1  -0.802884  0  -0.2683  -0.165565  0  3.574366  0
N  N114  1  0.51352190  0.57037957  0.11884321  1  -0.762805  0  -0.285472  -0.182969  0  3.630671  0
N  N115  1  0.63255786  0.35391377  0.06296055  1  -0.800383  0  -0.268291  -0.165521  0  3.57443  0
N  N116  1  0.63576102  0.58752102  0.72407258  1  -0.751239  0  -0.260818  -0.242775  0  3.511159  0
N  N117  1  0.43264577  0.30827398  0.05413014  1  -0.811388  0  -0.272006  -0.253261  0  3.516817  0
N  N118  1  0.31159279  0.35983876  0.27592594  1  -0.76873  0  -0.260838  -0.242872  0  3.511444  0
N  N119  1  0.36240202  0.48677736  0.94586790  1  -0.814788  0  -0.271951  -0.253062  0  3.516832  0
N  N120  1  0.36423584  0.64016358  0.04824117  1  -0.750163  0  -0.260806  -0.242788  0  3.511253  0
N  N121  1  0.56735639  0.51322541  0.12437377  1  -0.802966  0  -0.272006  -0.253213  0  3.516982  0
N  N122  1  0.68840655  0.41248209  0.95175844  1  -0.75271  0  -0.260856  -0.242878  0  3.511171  0
N  N123  1  0.63759808  0.69173152  0.87562335  1  -0.810417  0  -0.271935  -0.253053  0  3.516727  0
N  N124  1  0.72965239  0.53422312  0.61514546  1  -1.144352  0  -0.475679  -0.384106  0  3.541361  0
N  N125  1  0.30664673  0.12104574  0.19769479  1  -1.12804  0  -0.475158  -0.378096  0  3.485104  0
N  N126  1  0.14936786  0.34480115  0.38486232  1  -1.105941  0  -0.475676  -0.384245  0  3.541364  0
N  N127  1  0.31873627  0.50433343  0.80230621  1  -1.126977  0  -0.475229  -0.378094  0  3.485124  0
N  N128  1  0.27034002  0.65519792  0.19543162  1  -1.097917  0  -0.475635  -0.384223  0  3.541546  0
N  N129  1  0.69335687  0.49566107  0.18559812  1  -1.12832  0  -0.475203  -0.378112  0  3.485004  0
N  N130  1  0.85063163  0.46576925  0.80457091  1  -1.123261  0  -0.475699  -0.384308  0  3.541447  0
N  N131  1  0.68125845  0.87895677  0.81439951  1  -1.118101  0  -0.475198  -0.37824  0  3.48524  0
