# generated using pymatgen
data_ZnH13C11I(NO)4
_symmetry_space_group_name_H-M   'P 1'
_cell_length_a   9.95343478
_cell_length_b   10.97713899
_cell_length_c   13.58442979
_cell_angle_alpha   85.07496827
_cell_angle_beta   87.34244610
_cell_angle_gamma   91.63848831
_symmetry_Int_Tables_number   1
_chemical_formula_structural   ZnH13C11I(NO)4
_chemical_formula_sum   'Zn2 H26 C22 I2 N8 O8'
_cell_volume   1476.37622412
_cell_formula_units_Z   2
loop_
 _symmetry_equiv_pos_site_id
 _symmetry_equiv_pos_as_xyz
  1  'x, y, z'
loop_
 _atom_site_type_symbol
 _atom_site_label
 _atom_site_symmetry_multiplicity
 _atom_site_fract_x
 _atom_site_fract_y
 _atom_site_fract_z
 _atom_site_occupancy
 _atom_site_pbe_bader_charge
 _atom_site_pbe_bader_spin_density
 _atom_site_pbe_cm5_charge
 _atom_site_pbe_ddec_charge
 _atom_site_pbe_ddec_spin_density
 _atom_site_pbe_ddec_sum_bond_order
 _atom_site_pbe_magmom
Zn  Zn0  1  0.64763542  0.49726727  0.53270108  1  1.293377  0  0.667528  0.896026  0  2.351944  0
Zn  Zn1  1  0.35646923  0.48992517  0.50587027  1  1.305335  0  0.677995  0.855337  0  2.378874  0
H  H2  1  0.55981637  0.06690159  0.57701474  1  0.075038  0  0.098952  0.143119  0  1.008557  0
H  H3  1  0.13606454  0.67951004  0.38334711  1  0.076808  0  0.088114  0.097715  0  1.025694  0
H  H4  1  0.35059015  0.46505431  0.13516798  1  0.453042  0  0.300265  0.249468  0  0.969777  0
H  H5  1  0.12214938  0.47436941  0.08491488  1  0.035473  0  0.100404  0.10644  0  0.991129  0
H  H6  1  0.18283432  0.50352578  0.95963803  1  0.046527  0  0.099135  0.106453  0  1.008298  0
H  H7  1  0.19976377  0.61993106  0.04228985  1  -0.01057  0  0.088588  0.0864  0  0.99077  0
H  H8  1  0.28515224  0.21480149  0.45833977  1  0.497865  0  0.300183  0.263213  0  1.002262  0
H  H9  1  0.15489518  0.15624999  0.33365726  1  0.067926  0  0.104859  0.115386  0  0.977974  0
H  H10  1  0.13461078  0.00635524  0.39599344  1  0.039114  0  0.079985  0.07947  0  1.054675  0
H  H11  1  0.27466797  0.04282073  0.31128592  1  0.044834  0  0.09471  0.098809  0  0.997843  0
H  H12  1  0.68013110  0.85469966  0.39204874  1  0.443694  0  0.311244  0.257291  0  0.958603  0
H  H13  1  0.89902091  0.56071425  0.57050609  1  0.41321  0  0.302281  0.302259  0  0.936393  0
H  H14  1  0.69988577  0.03082041  0.28772906  1  0.036129  0  0.106056  0.109215  0  0.980335  0
H  H15  1  0.64317026  0.10972252  0.39149792  1  0.04059  0  0.091432  0.097915  0  1.020624  0
H  H16  1  0.52540866  0.05589312  0.31017569  1  0.056883  0  0.103001  0.111287  0  0.987866  0
H  H17  1  0.75730292  0.27053428  0.55135730  1  0.51271  0  0.303143  0.279746  0  0.998179  0
H  H18  1  0.90690861  0.12295592  0.46954234  1  0.056925  0  0.103962  0.114624  0  0.981372  0
H  H19  1  0.90906838  0.09771491  0.60095890  1  0.061714  0  0.104409  0.114601  0  0.98078  0
H  H20  1  0.04370136  0.18154009  0.53327226  1  0.052431  0  0.098996  0.108128  0  1.049619  0
H  H21  1  0.66961476  0.51852719  0.89875126  1  0.423152  0  0.304674  0.256023  0  0.958657  0
H  H22  1  0.89738038  0.51312224  0.94753457  1  0.049012  0  0.10211  0.108999  0  0.98994  0
H  H23  1  0.82388244  0.36790332  0.99472189  1  0.043735  0  0.087589  0.084725  0  0.993983  0
H  H24  1  0.83908342  0.48880609  0.07375104  1  0.067236  0  0.098362  0.104183  0  1.002804  0
H  H25  1  0.98839041  0.48180683  0.40833305  1  0.41331  0  0.314299  0.23087  0  0.968775  0
H  H26  1  0.09478769  0.60139529  0.27721290  1  0.044337  0  0.109174  0.122056  0  0.974233  0
H  H27  1  0.25522777  0.58289080  0.32866475  1  0.098323  0  0.107828  0.140474  0  1.018432  0
C  C28  1  0.50250193  0.72822573  0.46993227  1  1.583445  0  0.219129  0.579793  0  4.175809  0
C  C29  1  0.48764265  0.25227325  0.55090603  1  1.439748  0  0.192235  0.643022  0  4.184854  0
C  C30  1  0.46238023  0.53481868  0.70151132  1  1.658813  0  0.208766  0.65555  0  4.265973  0
C  C31  1  0.44150349  0.53036416  0.80701075  1  -0.219477  0  -0.046214  -0.180304  0  3.959289  0
C  C32  1  0.44458332  0.49238799  0.99959095  1  0.542318  0  0.08727  0.122292  0  4.139852  0
C  C33  1  0.57557609  0.49254554  0.03449629  1  0.561429  0  0.089388  0.123324  0  4.144152  0
C  C34  1  0.58725102  0.47402876  0.13698048  1  -0.03325  0  -0.039413  -0.076432  0  4.163519  0
C  C35  1  0.43219119  0.51245752  0.89734919  1  -0.082855  0  -0.037533  -0.077358  0  4.154369  0
C  C36  1  0.81836333  0.46803086  0.99811409  1  0.264837  0  -0.137323  -0.210896  0  4.008052  0
C  C37  1  0.14815221  0.59480952  0.34625990  1  0.250756  0  -0.142256  -0.25573  0  3.929643  0
C  C38  1  0.20292616  0.52011485  0.03628395  1  0.353715  0  -0.139111  -0.212558  0  4.004782  0
C  C39  1  0.57580592  0.45891516  0.22747131  1  -0.345222  0  -0.054237  -0.198765  0  3.973155  0
C  C40  1  0.20867053  0.07930054  0.36834758  1  0.2841  0  -0.142726  -0.216052  0  4.003429  0
C  C41  1  0.62006464  0.03425927  0.34581770  1  0.324278  0  -0.133115  -0.206234  0  3.991889  0
C  C42  1  0.93454968  0.16418017  0.53708546  1  0.305925  0  -0.134558  -0.223894  0  3.958233  0
C  C43  1  0.38554371  0.06338508  0.49197036  1  0.453298  0  0.102121  0.273061  0  4.105464  0
C  C44  1  0.48244392  0.12193048  0.54307282  1  0.018759  0  -0.153457  -0.448749  0  3.933929  0
C  C45  1  0.38882627  0.92999551  0.48814817  1  -0.143404  0  -0.080953  -0.16099  0  3.845368  0
C  C46  1  0.49574276  0.86639873  0.45498696  1  0.435203  0  0.087917  0.063579  0  4.051284  0
C  C47  1  0.91718077  0.38647769  0.55556205  1  1.203057  0  0.239095  0.377208  0  4.184477  0
C  C48  1  0.06538993  0.40227682  0.56602742  1  0.419968  0  0.080323  -0.001656  0  3.8884  0
C  C49  1  0.54976850  0.45824868  0.33242028  1  1.671581  0  0.205449  0.653498  0  4.274138  0
I  I50  1  0.21543486  0.84566140  0.56728578  1  0.08927  0  0.054775  -0.035965  0  1.5342  0
I  I51  1  0.12567338  0.33419480  0.70479504  1  0.241955  0  0.157877  0.076734  0  1.524505  0
N  N52  1  0.84470955  0.48531796  0.55477891  1  -1.226725  0  -0.534482  -0.634851  0  3.249805  0
N  N53  1  0.14360232  0.45860651  0.49620661  1  -0.777404  0  -0.210725  -0.105715  0  3.520462  0
N  N54  1  0.68924711  0.51596008  0.97177101  1  -1.137805  0  -0.445862  -0.285855  0  3.554513  0
N  N55  1  0.09143000  0.48674875  0.40566133  1  -0.670194  0  -0.337428  -0.138406  0  3.469554  0
N  N56  1  0.33054821  0.46826121  0.06217612  1  -1.178467  0  -0.44788  -0.290939  0  3.553637  0
N  N57  1  0.28418610  0.12369824  0.44729820  1  -1.250759  0  -0.44167  -0.277709  0  3.600354  0
N  N58  1  0.60768827  0.91626067  0.40190692  1  -1.201328  0  -0.436734  -0.250923  0  3.642508  0
N  N59  1  0.86270112  0.27612988  0.54589142  1  -1.24431  0  -0.406997  -0.255592  0  3.559418  0
O  O60  1  0.61773000  0.68442175  0.48322626  1  -1.166722  0  -0.316467  -0.548101  0  2.257437  0
O  O61  1  0.39253848  0.66893021  0.46427103  1  -1.171292  0  -0.310302  -0.529622  0  2.468814  0
O  O62  1  0.65042056  0.45704836  0.38758937  1  -1.147807  0  -0.328027  -0.565792  0  2.271607  0
O  O63  1  0.42553981  0.46080045  0.36004244  1  -1.155524  0  -0.316221  -0.550593  0  2.275417  0
O  O64  1  0.59644875  0.30701436  0.57435088  1  -1.191542  0  -0.32588  -0.572874  0  2.3007  0
O  O65  1  0.37926155  0.31112322  0.53359099  1  -1.186245  0  -0.330079  -0.58193  0  2.460384  0
O  O66  1  0.58552478  0.53648226  0.67014772  1  -1.145348  0  -0.321122  -0.544418  0  2.269809  0
O  O67  1  0.35922903  0.53424596  0.64944061  1  -1.164939  0  -0.322852  -0.569389  0  2.395312  0
