# generated using pymatgen
data_Al4H23C44N3(ClO13)2
_symmetry_space_group_name_H-M   'P 1'
_cell_length_a   6.64421681
_cell_length_b   15.84119347
_cell_length_c   17.18600737
_cell_angle_alpha   101.72906523
_cell_angle_beta   91.34794750
_cell_angle_gamma   91.81446495
_symmetry_Int_Tables_number   1
_chemical_formula_structural   Al4H23C44N3(ClO13)2
_chemical_formula_sum   'Al4 H23 C44 N3 Cl2 O26'
_cell_volume   1769.37992511
_cell_formula_units_Z   1
loop_
 _symmetry_equiv_pos_site_id
 _symmetry_equiv_pos_as_xyz
  1  'x, y, z'
loop_
 _atom_site_type_symbol
 _atom_site_label
 _atom_site_symmetry_multiplicity
 _atom_site_fract_x
 _atom_site_fract_y
 _atom_site_fract_z
 _atom_site_occupancy
 _atom_site_pbe_bader_charge
 _atom_site_pbe_bader_spin_density
 _atom_site_pbe_cm5_charge
 _atom_site_pbe_ddec_charge
 _atom_site_pbe_ddec_spin_density
 _atom_site_pbe_ddec_sum_bond_order
 _atom_site_pbe_magmom
Al  Al0  1  0.11517712  0.50226601  0.49559310  1  2.501498  0  0.397739  1.642385  0  2.575434  0
Al  Al1  1  0.61810313  0.49780896  0.49949500  1  2.499709  0  0.394746  1.640883  0  2.589463  0
Al  Al2  1  0.65389735  0.99815033  0.00505632  1  2.498926  0  0.399097  1.637105  0  2.57294  0
Al  Al3  1  0.15138979  0.00050662  0.00132656  1  2.499715  0  0.391549  1.641632  0  2.586919  0
H  H4  1  0.63184137  0.80863642  0.14147533  1  0.08398  0  0.111756  0.119715  0  0.994194  0
H  H5  1  0.23966517  0.90582935  0.20033178  1  0.099213  0  0.109977  0.116394  0  0.996921  0
H  H6  1  0.49038314  0.69093401  0.20347240  1  0.053919  0  0.104361  0.106547  0  1.001286  0
H  H7  1  0.27755323  0.80824896  0.29648703  1  0.061681  0  0.103837  0.10543  0  1.00172  0
H  H8  1  0.52826776  0.59381840  0.30006198  1  0.08375  0  0.109615  0.116012  0  0.99748  0
H  H9  1  0.13700516  0.69025939  0.35773242  1  0.09482  0  0.111234  0.118836  0  0.995294  0
H  H10  1  0.71639562  0.80084678  0.64164981  1  0.067393  0  0.098121  0.083637  0  0.993362  0
H  H11  1  0.53176860  0.77989207  0.78490538  1  0.071784  0  0.096844  0.085757  0  1.009365  0
H  H12  1  0.70961350  0.61544428  0.76755681  1  0.098989  0  0.101402  0.096165  0  0.996857  0
H  H13  1  0.05044073  0.69658654  0.85960520  1  0.074518  0  0.10017  0.090895  0  0.986833  0
H  H14  1  0.23435824  0.71783931  0.71696696  1  0.089174  0  0.097995  0.089221  0  1.007371  0
H  H15  1  0.05736483  0.88253942  0.73410628  1  0.057849  0  0.098831  0.086017  0  0.991714  0
H  H16  1  0.24333218  0.11134259  0.27210055  1  0.096325  0  0.117099  0.118492  0  0.965052  0
H  H17  1  0.74487576  0.23401823  0.22437476  1  0.113648  0  0.109552  0.110792  0  1.007615  0
H  H18  1  0.52604749  0.38807660  0.23240873  1  0.102502  0  0.109891  0.102982  0  0.976086  0
H  H19  1  0.21217959  0.28737304  0.13509362  1  0.068783  0  0.100772  0.092616  0  0.994614  0
H  H20  1  0.02266140  0.26314386  0.27853121  1  0.105962  0  0.103723  0.097443  0  1.020491  0
H  H21  1  0.64076615  0.06695658  0.77845511  1  0.128801  0  0.12003  0.140929  0  0.966769  0
H  H22  1  0.57548077  0.28107596  0.62224896  1  0.129392  0  0.11212  0.122984  0  1.013941  0
H  H23  1  0.38172095  0.60817792  0.53728955  1  0.629189  0  0.353143  0.4309  0  0.855824  0
H  H24  1  0.87070905  0.39708322  0.52274878  1  0.63022  0  0.354939  0.438355  0  0.843559  0
H  H25  1  0.38949459  0.88945635  0.96610656  1  0.613876  0  0.353184  0.430729  0  0.853956  0
H  H26  1  0.90071359  0.09955725  0.97282608  1  0.622903  0  0.340987  0.419556  0  0.88102  0
C  C27  1  0.34608910  0.37977671  0.38852928  1  1.597522  0  0.270155  0.645199  0  4.120438  0
C  C28  1  0.36794059  0.41854471  0.60382324  1  1.639357  0  0.2704  0.647303  0  4.117579  0
C  C29  1  0.88739872  0.62147421  0.60930732  1  1.56168  0  0.267628  0.652327  0  4.095749  0
C  C30  1  0.85234136  0.58065186  0.39334315  1  1.554981  0  0.268222  0.636712  0  4.101599  0
C  C31  1  0.93221552  0.86230804  0.16586579  1  -0.059741  0  -0.014832  -0.040924  0  3.99174  0
C  C32  1  0.83637342  0.63686495  0.33387614  1  -0.057976  0  -0.015859  -0.043458  0  3.996715  0
C  C33  1  0.63085458  0.69136960  0.23780742  1  -0.06597  0  -0.088305  -0.136472  0  3.998539  0
C  C34  1  0.65173123  0.63707938  0.29036057  1  0.024341  0  -0.085156  -0.099739  0  3.995896  0
C  C35  1  0.99632159  0.69143835  0.32397769  1  -0.019013  0  -0.074099  -0.13348  0  3.922843  0
C  C36  1  0.97733681  0.74953641  0.27190208  1  -0.052368  0  -0.002821  0.078526  0  3.997723  0
C  C37  1  0.79085996  0.74956492  0.22769763  1  0.03616  0  -0.002615  0.080181  0  3.994443  0
C  C38  1  0.77223389  0.80758264  0.17548477  1  -0.011871  0  -0.073316  -0.133258  0  3.917758  0
C  C39  1  0.11644517  0.86230808  0.20969025  1  0.033489  0  -0.084737  -0.099213  0  3.992111  0
C  C40  1  0.13723195  0.80785993  0.26205492  1  -0.081915  0  -0.087584  -0.133939  0  3.998844  0
C  C41  1  0.68738121  0.76564287  0.76923204  1  -0.047951  0  -0.080694  -0.070903  0  3.648145  0
C  C42  1  0.78975450  0.77867657  0.69115422  1  -0.027935  0  -0.07361  -0.062742  0  3.634604  0
C  C43  1  0.89063358  0.68861438  0.68282830  1  0.010852  0  -0.007555  -0.045596  0  3.66874  0
C  C44  1  0.78565399  0.67582043  0.76139960  1  -0.026978  0  -0.070057  -0.060767  0  3.611893  0
C  C45  1  0.97661226  0.71932838  0.81057676  1  -0.025036  0  -0.072071  -0.062222  0  3.633609  0
C  C46  1  0.07894183  0.73239282  0.73255958  1  -0.046538  0  -0.080006  -0.072521  0  3.65999  0
C  C47  1  0.98061034  0.82221156  0.74034045  1  -0.025677  0  -0.071216  -0.061442  0  3.622887  0
C  C48  1  0.87584317  0.80934858  0.81908167  1  0.007291  0  -0.008739  -0.044966  0  3.665172  0
C  C49  1  0.48007319  0.22799150  0.31233753  1  0.277928  0  0.0947  0.064815  0  3.620168  0
C  C50  1  0.30255145  0.17335219  0.26225174  1  -0.010361  0  -0.050451  -0.073415  0  3.558764  0
C  C51  1  0.41021484  0.18809777  0.18463920  1  0.007319  0  0.00084  -0.029516  0  3.648629  0
C  C52  1  0.58527678  0.24182990  0.23607710  1  -0.025053  0  -0.069296  -0.101671  0  3.626013  0
C  C53  1  0.46256976  0.32536088  0.23871517  1  -0.047921  0  -0.060974  -0.048572  0  3.591327  0
C  C54  1  0.28650532  0.27147904  0.18740375  1  -0.011057  0  -0.069492  -0.060973  0  3.615709  0
C  C55  1  0.18156155  0.25689598  0.26465801  1  -0.039765  0  -0.070004  -0.056441  0  3.624167  0
C  C56  1  0.35457114  0.31081721  0.31629282  1  0.041818  0  0.006393  -0.05894  0  3.648278  0
C  C57  1  0.40745950  0.14247975  0.84088129  1  0.071438  0  -0.006755  -0.058147  0  3.954313  0
C  C58  1  0.35265840  0.36931359  0.66964146  1  0.045488  0  0.005286  -0.04613  0  3.938377  0
C  C59  1  0.17749697  0.33797213  0.78421743  1  0.218247  0  0.088018  -0.002263  0  3.886737  0
C  C60  1  0.20655353  0.38823527  0.72829904  1  0.231507  0  0.093504  0.013329  0  3.91574  0
C  C61  1  0.46688148  0.29814484  0.66882185  1  0.05191  0  -0.060944  -0.091604  0  3.887249  0
C  C62  1  0.44379893  0.24541799  0.72546727  1  0.052203  0  0.004046  0.045073  0  3.940599  0
C  C63  1  0.29854539  0.26591492  0.78734459  1  0.095385  0  0.007491  0.000177  0  3.92934  0
C  C64  1  0.29079392  0.21459503  0.84675683  1  0.076255  0  0.022759  0.075685  0  3.973035  0
C  C65  1  0.54573311  0.12192850  0.77956665  1  0.058624  0  -0.0798  -0.146939  0  3.955591  0
C  C66  1  0.56520723  0.17242846  0.72368784  1  0.024421  0  0.02379  0.11611  0  4.023375  0
C  C67  1  0.39807050  0.08553584  0.90099279  1  1.62997  0  0.265842  0.646409  0  4.117625  0
C  C68  1  0.42326379  0.11875667  0.11277215  1  1.588866  0  0.270245  0.641782  0  4.106862  0
C  C69  1  0.91757012  0.91872569  0.10661792  1  1.57186  0  0.268797  0.635958  0  4.103771  0
C  C70  1  0.87850815  0.87766200  0.89173317  1  1.545636  0  0.266858  0.64845  0  4.099614  0
N  N71  1  0.57369807  0.20717437  0.38411914  1  0.4058  0  0.057599  0.516613  0  4.225036  0
N  N72  1  0.00772956  0.36109570  0.83814131  1  0.456834  0  0.050541  0.500095  0  4.299021  0
N  N73  1  0.08573216  0.46550876  0.73088296  1  0.393986  0  0.063429  0.51258  0  4.23762  0
Cl  Cl74  1  0.15569415  0.24509448  0.93199711  1  -0.176395  0  0.034164  -0.022065  0  1.605051  0
Cl  Cl75  1  0.74306654  0.14725054  0.65197892  1  -0.178229  0  0.014667  -0.057554  0  1.473481  0
O  O76  1  0.54294197  0.43972449  0.58534738  1  -1.240357  0  -0.225007  -0.567987  0  2.327683  0
O  O77  1  0.17939765  0.41465789  0.40606895  1  -1.24521  0  -0.224704  -0.562208  0  2.306528  0
O  O78  1  0.02567124  0.57120293  0.42318762  1  -1.25307  0  -0.234753  -0.590387  0  2.33278  0
O  O79  1  0.20058651  0.43129120  0.57158316  1  -1.247999  0  -0.234102  -0.596598  0  2.351261  0
O  O80  1  0.05555754  0.59254866  0.58380032  1  -1.262209  0  -0.238085  -0.605669  0  2.360513  0
O  O81  1  0.51429876  0.39915802  0.42580340  1  -1.263199  0  -0.23306  -0.589484  0  2.363477  0
O  O82  1  0.37276899  0.55195832  0.50183208  1  -1.432134  0  -0.448409  -0.989436  0  2.188842  0
O  O83  1  0.71431734  0.59751687  0.57652072  1  -1.274838  0  -0.242977  -0.612918  0  2.319879  0
O  O84  1  0.68749188  0.54762314  0.41163052  1  -1.257549  0  -0.23203  -0.583556  0  2.362334  0
O  O85  1  0.86559909  0.44744131  0.49890326  1  -1.430088  0  -0.447458  -0.994076  0  2.197783  0
O  O86  1  0.25901718  0.10053759  0.07229463  1  -1.263312  0  -0.235023  -0.5951  0  2.367976  0
O  O87  1  0.56538289  0.07413656  0.93387492  1  -1.244515  0  -0.231044  -0.582433  0  2.328605  0
O  O88  1  0.71100468  0.91087729  0.91328571  1  -1.262426  0  -0.241439  -0.60397  0  2.332152  0
O  O89  1  0.59064792  0.08335820  0.09685707  1  -1.251676  0  -0.229572  -0.568296  0  2.295521  0
O  O90  1  0.74611649  0.92614164  0.07420983  1  -1.265561  0  -0.234378  -0.590783  0  2.335857  0
O  O91  1  0.22639849  0.05362737  0.91237748  1  -1.249047  0  -0.236679  -0.595284  0  2.352501  0
O  O92  1  0.39735448  0.94685555  0.99944209  1  -1.417309  0  -0.448935  -0.989936  0  2.188909  0
O  O93  1  0.08199564  0.95427781  0.09085015  1  -1.257061  0  -0.231354  -0.583127  0  2.362602  0
O  O94  1  0.04979014  0.89913427  0.92710566  1  -1.269304  0  -0.243526  -0.610876  0  2.315913  0
O  O95  1  0.90484791  0.05247827  0.00112543  1  -1.428818  0  -0.449701  -0.990034  0  2.199651  0
O  O96  1  0.75640868  0.19368092  0.38431965  1  -0.462763  0  -0.137746  -0.337035  0  1.862698  0
O  O97  1  0.45998647  0.20503649  0.44011900  1  -0.470659  0  -0.144318  -0.346113  0  1.870533  0
O  O98  1  0.85930654  0.31081047  0.82715197  1  -0.453416  0  -0.115277  -0.315075  0  1.99149  0
O  O99  1  0.02553951  0.42974595  0.88733995  1  -0.426641  0  -0.126909  -0.314269  0  1.889537  0
O  O100  1  0.18214040  0.53506314  0.74104399  1  -0.422783  0  -0.090019  -0.27905  0  1.913065  0
O  O101  1  0.90073542  0.45491658  0.72337064  1  -0.399988  0  -0.100591  -0.290162  0  1.921663  0
