# generated using pymatgen
data_AlH4C9NO7F
_symmetry_space_group_name_H-M   'P 1'
_cell_length_a   6.86032015
_cell_length_b   11.23324418
_cell_length_c   11.17582012
_cell_angle_alpha   79.22408214
_cell_angle_beta   72.16284050
_cell_angle_gamma   70.87717336
_symmetry_Int_Tables_number   1
_chemical_formula_structural   AlH4C9NO7F
_chemical_formula_sum   'Al2 H8 C18 N2 O14 F2'
_cell_volume   771.00854908
_cell_formula_units_Z   2
loop_
 _symmetry_equiv_pos_site_id
 _symmetry_equiv_pos_as_xyz
  1  'x, y, z'
loop_
 _atom_site_type_symbol
 _atom_site_label
 _atom_site_symmetry_multiplicity
 _atom_site_fract_x
 _atom_site_fract_y
 _atom_site_fract_z
 _atom_site_occupancy
 _atom_site_pbe_bader_charge
 _atom_site_pbe_bader_spin_density
 _atom_site_pbe_cm5_charge
 _atom_site_pbe_ddec_charge
 _atom_site_pbe_ddec_spin_density
 _atom_site_pbe_ddec_sum_bond_order
 _atom_site_pbe_magmom
Al  Al0  1  0.50990828  0.48869305  0.50098913  1  2.506095  0  0.408728  1.641537  0  2.541073  0
Al  Al1  1  0.01032898  0.48951751  0.50032456  1  2.510085  0  0.401736  1.652003  0  2.55055  0
H  H2  1  0.24057447  0.62983553  0.39658754  1  0.611617  0  0.33547  0.415175  0  0.890927  0
H  H3  1  0.76126072  0.36704350  0.62711286  1  0.601301  0  0.34291  0.427403  0  0.865698  0
H  H4  1  0.78294496  0.10271369  0.46011482  1  0.177612  0  0.121274  0.127699  0  1.085098  0
H  H5  1  0.23678334  0.87693966  0.53885642  1  0.202443  0  0.119261  0.123778  0  1.08962  0
H  H6  1  0.17802972  0.70001810  0.09922969  1  0.038595  0  0.099379  0.110299  0  0.977398  0
H  H7  1  0.38199934  0.55426014  0.11119695  1  0.063762  0  0.098081  0.116962  0  1.001656  0
H  H8  1  0.49575583  0.55900782  0.87273806  1  0.09462  0  0.096867  0.115309  0  1.000252  0
H  H9  1  0.28725795  0.70321403  0.86341123  1  0.058878  0  0.099456  0.110766  0  0.974102  0
C  C10  1  0.87708369  0.48585202  0.27780927  1  1.636879  0  0.275041  0.681563  0  4.075575  0
C  C11  1  0.63161872  0.71431594  0.50662724  1  1.592673  0  0.276003  0.649463  0  4.082155  0
C  C12  1  0.14516264  0.48399111  0.72537044  1  1.628761  0  0.273149  0.677483  0  4.075324  0
C  C13  1  0.38778388  0.26495526  0.49324107  1  1.626139  0  0.27962  0.654364  0  4.078633  0
C  C14  1  0.56862540  0.85548242  0.50664392  1  -0.018917  0  0.007797  -0.052763  0  3.918944  0
C  C15  1  0.45106636  0.12393879  0.49209939  1  0.038192  0  0.009997  -0.046942  0  3.905347  0
C  C16  1  0.71849692  0.92162441  0.48644464  1  0.214529  0  0.091233  0.060894  0  3.937136  0
C  C17  1  0.30112074  0.05791225  0.51235724  1  0.231866  0  0.094188  0.065325  0  3.934135  0
C  C18  1  0.66410901  0.05249715  0.47789690  1  0.06115  0  -0.065402  -0.122461  0  3.91718  0
C  C19  1  0.35581904  0.92699460  0.52080499  1  0.0472  0  -0.067759  -0.127053  0  3.929136  0
C  C20  1  0.94854058  0.47977407  0.13874107  1  -0.022162  0  -0.01188  -0.169608  0  3.989031  0
C  C21  1  0.08094533  0.48079365  0.86544017  1  -0.018773  0  -0.014112  -0.17071  0  3.988784  0
C  C22  1  0.10732172  0.53318706  0.06173559  1  0.067724  0  -0.003152  0.067799  0  3.903854  0
C  C23  1  0.92317130  0.42465850  0.94240401  1  0.524354  0  0.099341  0.15076  0  4.058751  0
C  C24  1  0.17076748  0.53394815  0.93070928  1  0.009598  0  -0.003636  0.070223  0  3.898027  0
C  C25  1  0.85918286  0.42408881  0.07412582  1  0.528702  0  0.099961  0.154319  0  4.059902  0
C  C26  1  0.25673409  0.60657369  0.06327070  1  0.019715  0  -0.150652  -0.198023  0  3.852173  0
C  C27  1  0.32756097  0.60850792  0.91422906  1  -0.06602  0  -0.147519  -0.192834  0  3.847021  0
N  N28  1  0.94241048  0.85214451  0.48352956  1  0.39703  0  0.063692  0.522662  0  4.216517  0
N  N29  1  0.07617653  0.12623265  0.51677877  1  0.420921  0  0.063913  0.520482  0  4.22117  0
O  O30  1  0.67889768  0.50157422  0.33113369  1  -1.254778  0  -0.231698  -0.594213  0  2.341251  0
O  O31  1  0.83035782  0.65926737  0.49170206  1  -1.250623  0  -0.225797  -0.593696  0  2.420953  0
O  O32  1  0.99908715  0.49657817  0.67219505  1  -1.248549  0  -0.232343  -0.593913  0  2.349991  0
O  O33  1  0.53266033  0.31535697  0.48365420  1  -1.234347  0  -0.217646  -0.557763  0  2.343721  0
O  O34  1  0.34229683  0.47397642  0.67209309  1  -1.256208  0  -0.230644  -0.587068  0  2.310578  0
O  O35  1  0.18913406  0.32017370  0.50862462  1  -1.248645  0  -0.222233  -0.589331  0  2.418358  0
O  O36  1  0.02182502  0.48012261  0.32953531  1  -1.250823  0  -0.22645  -0.576482  0  2.316194  0
O  O37  1  0.48631569  0.66372395  0.51731663  1  -1.229456  0  -0.219402  -0.560707  0  2.336894  0
O  O38  1  0.25740442  0.54754446  0.44539997  1  -1.418258  0  -0.453037  -0.98907  0  2.145846  0
O  O39  1  0.76192524  0.43248775  0.55678489  1  -1.401574  0  -0.449596  -0.992449  0  2.155467  0
O  O40  1  0.97995647  0.81811038  0.58804419  1  -0.431479  0  -0.092885  -0.278441  0  1.944921  0
O  O41  1  0.07656843  0.83857370  0.37984248  1  -0.447157  0  -0.109429  -0.313352  0  1.901279  0
O  O42  1  0.94323899  0.13496464  0.62081124  1  -0.441822  0  -0.108712  -0.305092  0  1.892043  0
O  O43  1  0.03763519  0.16252622  0.41260781  1  -0.430852  0  -0.095014  -0.280475  0  1.944439  0
F  F44  1  0.83167531  0.36340801  0.89137571  1  -0.613817  0  -0.091283  -0.115449  0  1.377281  0
F  F45  1  0.71166518  0.36294054  0.13811464  1  -0.626183  0  -0.086819  -0.108372  0  1.373164  0
