# generated using pymatgen
data_AlH9C13NO6
_symmetry_space_group_name_H-M   'P 1'
_cell_length_a   6.64569631
_cell_length_b   11.18941009
_cell_length_c   15.16585056
_cell_angle_alpha   81.82861244
_cell_angle_beta   79.23922323
_cell_angle_gamma   72.13848346
_symmetry_Int_Tables_number   1
_chemical_formula_structural   AlH9C13NO6
_chemical_formula_sum   'Al2 H18 C26 N2 O12'
_cell_volume   1050.16941487
_cell_formula_units_Z   2
loop_
 _symmetry_equiv_pos_site_id
 _symmetry_equiv_pos_as_xyz
  1  'x, y, z'
loop_
 _atom_site_type_symbol
 _atom_site_label
 _atom_site_symmetry_multiplicity
 _atom_site_fract_x
 _atom_site_fract_y
 _atom_site_fract_z
 _atom_site_occupancy
 _atom_site_pbe_bader_charge
 _atom_site_pbe_bader_spin_density
 _atom_site_pbe_cm5_charge
 _atom_site_pbe_ddec_charge
 _atom_site_pbe_ddec_spin_density
 _atom_site_pbe_ddec_sum_bond_order
 _atom_site_pbe_magmom
Al  Al0  1  0.49480826  0.49612095  0.51017102  1  2.506086  0  0.399368  1.645957  0  2.573773  0
Al  Al1  1  0.99463224  0.49633898  0.50845773  1  2.501724  0  0.394607  1.634169  0  2.594991  0
H  H2  1  0.28763150  0.34539664  0.56556889  1  0.589475  0  0.352476  0.423478  0  0.865806  0
H  H3  1  0.69888387  0.63877704  0.43770719  1  0.630014  0  0.349568  0.425087  0  0.8664  0
H  H4  1  0.85982119  0.45596026  0.95802901  1  0.037458  0  0.097881  0.103696  0  1.024125  0
H  H5  1  0.19032776  0.45365877  0.06051104  1  0.039991  0  0.098414  0.105675  0  1.022613  0
H  H6  1  0.64221439  0.56262225  0.24341885  1  0.061484  0  0.103808  0.102115  0  1.020483  0
H  H7  1  0.73121995  0.58166239  0.07610837  1  0.053486  0  0.09613  0.10028  0  1.025906  0
H  H8  1  0.28601602  0.58744473  0.76750599  1  0.107201  0  0.107621  0.109829  0  1.011447  0
H  H9  1  0.18958634  0.59526037  0.93366475  1  0.059869  0  0.095339  0.09965  0  1.023462  0
H  H10  1  0.23657845  0.23598124  0.38295931  1  0.065489  0  0.100293  0.1058  0  1.05427  0
H  H11  1  0.56368467  0.12779013  0.28771806  1  0.071379  0  0.100258  0.097808  0  0.993738  0
H  H12  1  0.42448911  0.77459674  0.36992363  1  0.040704  0  0.099728  0.099694  0  1.043291  0
H  H13  1  0.65810253  0.89417659  0.27986582  1  0.04552  0  0.099368  0.096021  0  0.99574  0
H  H14  1  0.04485541  0.45575801  0.71842322  1  0.504238  0  0.308479  0.320633  0  0.976612  0
H  H15  1  0.11440715  0.43512683  0.82675543  1  0.439619  0  0.306081  0.299979  0  0.960595  0
H  H16  1  0.99691349  0.44924589  0.29967932  1  0.516335  0  0.31059  0.319043  0  0.966434  0
H  H17  1  0.95881970  0.42135615  0.19458023  1  0.450802  0  0.306028  0.301131  0  0.960845  0
H  H18  1  0.76806575  0.78232535  0.56225372  1  0.637636  0  0.319024  0.358122  0  0.952697  0
H  H19  1  0.58495629  0.20699839  0.56481686  1  0.621362  0  0.312757  0.341248  0  0.991173  0
C  C20  1  0.87664798  0.26689963  0.50148038  1  1.485425  0  0.26966  0.664066  0  4.0329  0
C  C21  1  0.66353117  0.50773170  0.67060424  1  1.496735  0  0.256987  0.647058  0  4.096606  0
C  C22  1  0.12503874  0.72576147  0.49940036  1  1.469692  0  0.268193  0.66202  0  4.056939  0
C  C23  1  0.32591664  0.49450925  0.34592125  1  1.494697  0  0.256017  0.647782  0  4.103786  0
C  C24  1  0.62358234  0.51780983  0.76812167  1  0.021375  0  -0.036978  -0.188921  0  3.946046  0
C  C25  1  0.36652061  0.50085143  0.24685671  1  -0.011613  0  -0.038019  -0.186237  0  3.953848  0
C  C26  1  0.79149553  0.48565170  0.82176034  1  0.440374  0  0.117669  0.326594  0  4.069187  0
C  C27  1  0.73249974  0.48713574  0.91639624  1  0.050016  0  -0.10653  -0.260158  0  3.920945  0
C  C28  1  0.23033480  0.47317184  0.19514409  1  0.431166  0  0.114978  0.32146  0  4.076861  0
C  C29  1  0.28843146  0.47984265  0.10041424  1  0.025846  0  -0.106723  -0.261732  0  3.922751  0
C  C30  1  0.54608793  0.53776883  0.20203631  1  -0.045014  0  -0.090523  -0.074588  0  4.059547  0
C  C31  1  0.59740071  0.54657139  0.10910769  1  0.010197  0  -0.118545  -0.195984  0  4.043221  0
C  C32  1  0.40973963  0.55739210  0.81069522  1  -0.033167  0  -0.087755  -0.067691  0  4.045378  0
C  C33  1  0.35611002  0.56014854  0.90304574  1  -0.101447  0  -0.117929  -0.196117  0  4.039971  0
C  C34  1  0.52019387  0.52147424  0.95758434  1  -0.029382  0  -0.002732  0.102929  0  4.025211  0
C  C35  1  0.46764302  0.51593340  0.05693792  1  -0.059478  0  -0.00169  0.107127  0  4.02208  0
C  C36  1  0.93993167  0.13144369  0.48859220  1  0.067438  0  -0.031409  -0.240369  0  3.947531  0
C  C37  1  0.14176229  0.06819087  0.43653682  1  0.013343  0  -0.004823  0.072601  0  3.961599  0
C  C38  1  0.79642356  0.06305875  0.52901370  1  0.565342  0  0.098369  0.22633  0  4.030695  0
C  C39  1  0.27896324  0.13443683  0.38278593  1  0.042463  0  -0.099824  -0.136174  0  3.983707  0
C  C40  1  0.46330970  0.07332505  0.32868941  1  -0.088002  0  -0.098216  -0.083884  0  4.056673  0
C  C41  1  0.05904799  0.86441564  0.48598668  1  0.049702  0  -0.031521  -0.238575  0  3.963383  0
C  C42  1  0.85598056  0.92858828  0.52785964  1  0.572737  0  0.098262  0.224353  0  4.042633  0
C  C43  1  0.19952794  0.93403895  0.43423585  1  -0.0433  0  -0.005134  0.075809  0  3.965848  0
C  C44  1  0.38661420  0.87494402  0.37612892  1  0.05141  0  -0.103223  -0.148418  0  4.005915  0
C  C45  1  0.51684623  0.94252121  0.32464798  1  -0.074627  0  -0.101912  -0.092898  0  4.076134  0
N  N46  1  0.00202790  0.45046541  0.78644771  1  -1.26622  0  -0.581886  -0.598982  0  3.356348  0
N  N47  1  0.05507841  0.43568791  0.23392617  1  -1.29117  0  -0.585815  -0.605845  0  3.35965  0
O  O48  1  0.67363772  0.32308598  0.52328850  1  -1.258268  0  -0.240569  -0.612523  0  2.370716  0
O  O49  1  0.85829506  0.48385944  0.63002046  1  -1.279313  0  -0.245049  -0.618597  0  2.38605  0
O  O50  1  0.97588603  0.66948056  0.51912599  1  -1.265715  0  -0.239803  -0.612044  0  2.362247  0
O  O51  1  0.48496929  0.47774531  0.38702219  1  -1.268163  0  -0.248515  -0.607899  0  2.351477  0
O  O52  1  0.32192267  0.66583507  0.49379827  1  -1.26237  0  -0.22303  -0.577208  0  2.399742  0
O  O53  1  0.13207710  0.50849600  0.38553062  1  -1.272304  0  -0.246212  -0.6195  0  2.370755  0
O  O54  1  0.01694994  0.32472951  0.49407491  1  -1.262747  0  -0.226516  -0.57477  0  2.37802  0
O  O55  1  0.50367909  0.52033733  0.63066922  1  -1.272496  0  -0.245944  -0.604516  0  2.34487  0
O  O56  1  0.25652911  0.43596598  0.55174096  1  -1.397063  0  -0.447193  -0.977434  0  2.168616  0
O  O57  1  0.73418028  0.55316871  0.46609169  1  -1.438246  0  -0.451098  -0.992631  0  2.209712  0
O  O58  1  0.70848211  0.87360799  0.57226721  1  -1.123555  0  -0.333424  -0.393897  0  2.287423  0
O  O59  1  0.60168301  0.11410130  0.57435125  1  -1.124171  0  -0.339414  -0.39995  0  2.289708  0
