# generated using pymatgen
data_Al2H7C12O12F
_symmetry_space_group_name_H-M   'P 1'
_cell_length_a   6.70631469
_cell_length_b   8.83413793
_cell_length_c   11.18230939
_cell_angle_alpha   98.67932958
_cell_angle_beta   71.99715158
_cell_angle_gamma   75.28716888
_symmetry_Int_Tables_number   1
_chemical_formula_structural   Al2H7C12O12F
_chemical_formula_sum   'Al2 H7 C12 O12 F1'
_cell_volume   590.14245719
_cell_formula_units_Z   1
loop_
 _symmetry_equiv_pos_site_id
 _symmetry_equiv_pos_as_xyz
  1  'x, y, z'
loop_
 _atom_site_type_symbol
 _atom_site_label
 _atom_site_symmetry_multiplicity
 _atom_site_fract_x
 _atom_site_fract_y
 _atom_site_fract_z
 _atom_site_occupancy
 _atom_site_pbe_bader_charge
 _atom_site_pbe_bader_spin_density
 _atom_site_pbe_cm5_charge
 _atom_site_pbe_ddec_charge
 _atom_site_pbe_ddec_spin_density
 _atom_site_pbe_ddec_sum_bond_order
 _atom_site_pbe_magmom
Al  Al0  1  0.99966885  0.49995126  0.49989185  1  2.501886  0  0.40485  1.640437  0  2.587123  0
Al  Al1  1  0.49792626  0.50114913  0.50272038  1  2.493868  0  0.402169  1.647659  0  2.575713  0
H  H2  1  0.86646997  0.38098758  0.34352758  1  0.626358  0  0.355155  0.434087  0  0.849467  0
H  H3  1  0.11815295  0.65472687  0.64830876  1  0.614904  0  0.359097  0.437671  0  0.839018  0
H  H4  1  0.22342939  0.53043626  0.89575379  1  0.095409  0  0.107877  0.1133  0  1.007772  0
H  H5  1  0.89398828  0.46893428  0.87045729  1  0.118412  0  0.118603  0.14393  0  0.992238  0
H  H6  1  0.11890393  0.52403303  0.12973587  1  0.13765  0  0.108396  0.115851  0  1.025553  0
H  H7  1  0.28562264  0.86866203  0.50815629  1  0.657209  0  0.315687  0.357311  0  0.950611  0
H  H8  1  0.71429406  0.13315061  0.49480596  1  0.648924  0  0.317722  0.360357  0  0.944575  0
C  C9  1  0.34761072  0.21360883  0.49147389  1  1.530374  0  0.259075  0.607031  0  4.102905  0
C  C10  1  0.37235382  0.48797104  0.27164011  1  1.607342  0  0.275459  0.671944  0  4.075989  0
C  C11  1  0.64952475  0.78901258  0.51308325  1  1.542807  0  0.257879  0.606264  0  4.098704  0
C  C12  1  0.62994613  0.50957762  0.73013245  1  1.583096  0  0.27586  0.652106  0  4.073615  0
C  C13  1  0.44494820  0.49067705  0.13189576  1  0.00143  0  -0.014691  -0.149931  0  3.945675  0
C  C14  1  0.56380794  0.50306105  0.86922228  1  -0.039598  0  -0.00208  -0.001263  0  3.968937  0
C  C15  1  0.66302578  0.47446851  0.05554508  1  0.48028  0  0.113616  0.286399  0  4.027842  0
C  C16  1  0.34563658  0.51640114  0.94199161  1  0.004962  0  -0.082983  -0.109184  0  3.974516  0
C  C17  1  0.72344108  0.48173673  0.92678132  1  -0.04885  0  -0.088282  -0.222947  0  3.963346  0
C  C18  1  0.28812835  0.51156191  0.07141928  1  0.034485  0  -0.072938  -0.061366  0  3.963096  0
C  C19  1  0.39811454  0.04379444  0.49997793  1  0.569166  0  0.061235  0.03073  0  4.072993  0
C  C20  1  0.59926158  0.95885346  0.50454257  1  0.612507  0  0.061164  0.033571  0  4.070229  0
O  O21  1  0.16153735  0.28210655  0.48596698  1  -1.241707  0  -0.226501  -0.553112  0  2.351574  0
O  O22  1  0.51055522  0.48738304  0.32806180  1  -1.262539  0  -0.235453  -0.602416  0  2.374177  0
O  O23  1  0.49606835  0.72298037  0.51764896  1  -1.26375  0  -0.241927  -0.614715  0  2.386838  0
O  O24  1  0.82581164  0.51094080  0.67469873  1  -1.260266  0  -0.230233  -0.588722  0  2.351426  0
O  O25  1  0.83723874  0.71960113  0.51631907  1  -1.243847  0  -0.230143  -0.562237  0  2.35413  0
O  O26  1  0.48564885  0.51385002  0.67758357  1  -1.257869  0  -0.234058  -0.594649  0  2.340022  0
O  O27  1  0.49915180  0.28056452  0.48943503  1  -1.262621  0  -0.238794  -0.607268  0  2.386607  0
O  O28  1  0.17513099  0.48684722  0.32444189  1  -1.260548  0  -0.230597  -0.589541  0  2.330839  0
O  O29  1  0.80604764  0.42428072  0.43699066  1  -1.418778  0  -0.446719  -0.985684  0  2.167451  0
O  O30  1  0.19060340  0.57793802  0.56426297  1  -1.407342  0  -0.447447  -0.992121  0  2.190011  0
O  O31  1  0.23197043  0.98262693  0.50308085  1  -1.13529  0  -0.342477  -0.384144  0  2.356929  0
O  O32  1  0.76596881  0.01950382  0.50094074  1  -1.123323  0  -0.342027  -0.384303  0  2.356657  0
F  F33  1  0.82682394  0.44834396  0.10506242  1  -0.634743  0  -0.086495  -0.135045  0  1.384256  0
