# generated using pymatgen
data_Al3H31C42(S3O16)2
_symmetry_space_group_name_H-M   'P 1'
_cell_length_a   13.85157179
_cell_length_b   13.98626375
_cell_length_c   27.03590133
_cell_angle_alpha   90.18515447
_cell_angle_beta   90.31512274
_cell_angle_gamma   119.78405495
_symmetry_Int_Tables_number   1
_chemical_formula_structural   Al3H31C42(S3O16)2
_chemical_formula_sum   'Al6 H62 C84 S12 O64'
_cell_volume   4545.65377953
_cell_formula_units_Z   2
loop_
 _symmetry_equiv_pos_site_id
 _symmetry_equiv_pos_as_xyz
  1  'x, y, z'
loop_
 _atom_site_type_symbol
 _atom_site_label
 _atom_site_symmetry_multiplicity
 _atom_site_fract_x
 _atom_site_fract_y
 _atom_site_fract_z
 _atom_site_occupancy
 _atom_site_pbe_bader_charge
 _atom_site_pbe_bader_spin_density
 _atom_site_pbe_cm5_charge
 _atom_site_pbe_ddec_charge
 _atom_site_pbe_ddec_spin_density
 _atom_site_pbe_ddec_sum_bond_order
 _atom_site_pbe_magmom
Al  Al0  1  0.36340766  0.53760894  0.49632571  1  2.501933  0  0.398761  1.685498  0  2.564222  0
Al  Al1  1  0.19565105  0.63314731  0.49761513  1  2.481537  0  0.507364  1.658197  0  2.507655  0
Al  Al2  1  0.43875254  0.79531879  0.49841877  1  2.48056  0  0.505106  1.658131  0  2.520285  0
Al  Al3  1  0.88925345  0.04681612  0.98643365  1  2.501488  0  0.396157  1.686091  0  2.560605  0
Al  Al4  1  0.14272706  0.10092998  0.98561373  1  2.485364  0  0.507588  1.658379  0  2.510318  0
Al  Al5  1  0.96513224  0.86395021  0.98568047  1  2.481818  0  0.503539  1.658292  0  2.518821  0
H  H6  1  0.27598248  0.79405736  0.18737498  1  0.186421  0  0.121601  0.139903  0  1.019407  0
H  H7  1  0.09357636  0.71787693  0.78293953  1  0.066337  0  0.10533  0.104769  0  0.999615  0
H  H8  1  0.64382997  0.90922226  0.77931700  1  0.068062  0  0.103316  0.101819  0  1.003415  0
H  H9  1  0.28733829  0.37457233  0.77897067  1  0.060078  0  0.102686  0.101705  0  1.003994  0
H  H10  1  0.40302194  0.99314310  0.71751513  1  0.05479  0  0.103587  0.101449  0  1.002786  0
H  H11  1  0.60754115  0.59954643  0.71390493  1  0.05178  0  0.101263  0.099262  0  1.006329  0
H  H12  1  0.00895475  0.41881782  0.72183387  1  0.057103  0  0.099462  0.09766  0  1.008368  0
H  H13  1  0.31957135  0.06601001  0.76651542  1  0.044585  0  0.105011  0.104603  0  0.999814  0
H  H14  1  0.76550405  0.68092296  0.76292308  1  0.071022  0  0.101826  0.10031  0  1.005454  0
H  H15  1  0.93588556  0.26024052  0.76898289  1  0.02619  0  0.101632  0.100256  0  1.003957  0
H  H16  1  0.28731757  0.09663191  0.85400506  1  0.112206  0  0.111451  0.1145  0  0.992248  0
H  H17  1  0.52490403  0.73330073  0.18046006  1  0.183249  0  0.1228  0.143089  0  1.025049  0
H  H18  1  0.82913689  0.71410103  0.85095932  1  0.08221  0  0.107757  0.109573  0  0.999428  0
H  H19  1  0.91291204  0.19108102  0.85555649  1  0.101307  0  0.113446  0.118911  0  0.991144  0
H  H20  1  0.05721433  0.74599674  0.70159499  1  0.0669  0  0.104257  0.10293  0  1.00099  0
H  H21  1  0.70864810  0.94373717  0.70012166  1  0.058344  0  0.102545  0.10073  0  1.003946  0
H  H22  1  0.24670655  0.30973960  0.69825159  1  0.067942  0  0.102637  0.100686  0  1.002979  0
H  H23  1  0.09133954  0.71384189  0.61451772  1  0.115389  0  0.114864  0.117993  0  0.988212  0
H  H24  1  0.63542165  0.90950683  0.61356915  1  0.095424  0  0.112061  0.115389  0  0.99197  0
H  H25  1  0.27181016  0.37727272  0.61133316  1  0.138969  0  0.122678  0.133422  0  0.976248  0
H  H26  1  0.27055385  0.06452205  0.29555103  1  0.126517  0  0.118262  0.122587  0  1.014804  0
H  H27  1  0.78408244  0.72819893  0.29510069  1  0.179398  0  0.118296  0.130665  0  1.033242  0
H  H28  1  0.22145475  0.49089248  0.18439545  1  0.163365  0  0.120735  0.138635  0  1.009579  0
H  H29  1  0.93126900  0.22537244  0.28600693  1  0.138037  0  0.117759  0.115108  0  1.045184  0
H  H30  1  0.14271186  0.76195629  0.28101834  1  0.088394  0  0.129407  0.136207  0  0.94224  0
H  H31  1  0.61264799  0.86252789  0.26818585  1  0.103858  0  0.126604  0.136448  0  0.944669  0
H  H32  1  0.24105504  0.39567817  0.27841167  1  0.116497  0  0.128179  0.138512  0  0.939038  0
H  H33  1  0.10387764  0.78431307  0.20014063  1  0.145376  0  0.11309  0.140093  0  0.9676  0
H  H34  1  0.70249840  0.90214726  0.19241158  1  0.104129  0  0.116593  0.142547  0  0.95214  0
H  H35  1  0.21636390  0.31398415  0.20085835  1  0.142861  0  0.111734  0.140109  0  0.971455  0
H  H36  1  0.57532543  0.07144906  0.19716636  1  0.696851  0  0.330037  0.414145  0  0.894761  0
H  H37  1  0.47775018  0.42672643  0.19390816  1  0.672992  0  0.327267  0.41139  0  0.902544  0
H  H38  1  0.94258979  0.50931215  0.18377335  1  0.688434  0  0.32241  0.404522  0  0.92275  0
H  H39  1  0.09627273  0.90351551  0.21484655  1  0.076835  0  0.103017  0.117078  0  0.995701  0
H  H40  1  0.32855019  0.79333827  0.26911271  1  0.065562  0  0.103647  0.114858  0  0.969532  0
H  H41  1  0.45852259  0.67943749  0.25997452  1  0.02889  0  0.102636  0.114542  0  0.968598  0
H  H42  1  0.21373786  0.54741820  0.26490302  1  0.051035  0  0.103199  0.115126  0  0.969199  0
H  H43  1  0.06001094  0.74999011  0.87005759  1  0.095429  0  0.113752  0.117057  0  0.985338  0
H  H44  1  0.71049587  0.94362072  0.86695308  1  0.104851  0  0.114028  0.117024  0  0.989871  0
H  H45  1  0.26250138  0.30287119  0.86502359  1  0.09098  0  0.109382  0.112034  0  0.992271  0
H  H46  1  0.44184641  0.92960883  0.26573140  1  0.145011  0  0.105282  0.124197  0  1.019099  0
H  H47  1  0.48177987  0.56572227  0.25904823  1  0.130002  0  0.103566  0.121601  0  1.027228  0
H  H48  1  0.07821335  0.52769198  0.25573952  1  0.119288  0  0.104874  0.124984  0  1.020373  0
H  H49  1  0.61731932  0.17376227  0.29107161  1  0.69077  0  0.325461  0.412587  0  0.904431  0
H  H50  1  0.81580591  0.89091484  0.21554325  1  0.069064  0  0.103089  0.110967  0  0.986751  0
H  H51  1  0.53116776  0.38987080  0.29933429  1  0.681003  0  0.329968  0.419028  0  0.891334  0
H  H52  1  0.83965106  0.47579014  0.28883170  1  0.694139  0  0.331699  0.425231  0  0.887494  0
H  H53  1  0.42859673  0.08750400  0.12174483  1  0.669537  0  0.325239  0.396914  0  0.916729  0
H  H54  1  0.65873586  0.56329832  0.12121214  1  0.666849  0  0.323629  0.396594  0  0.918297  0
H  H55  1  0.93547961  0.34990438  0.10749781  1  0.674036  0  0.328794  0.398932  0  0.905437  0
H  H56  1  0.25105072  0.08096433  0.21540734  1  0.112869  0  0.119906  0.13079  0  0.971195  0
H  H57  1  0.82548132  0.73569591  0.21609151  1  0.104771  0  0.120786  0.128347  0  0.963999  0
H  H58  1  0.92264840  0.18657918  0.20665627  1  0.070168  0  0.11979  0.129807  0  0.972116  0
H  H59  1  0.95659114  0.92252132  0.30218949  1  0.658859  0  0.307617  0.370036  0  0.981012  0
H  H60  1  0.92363368  0.08630599  0.29729412  1  0.661427  0  0.30949  0.371773  0  0.98031  0
H  H61  1  0.08737662  0.19924169  0.21628250  1  0.081766  0  0.101898  0.108634  0  0.989655  0
H  H62  1  0.11338701  0.07069880  0.28799096  1  0.6647  0  0.309784  0.367429  0  0.974094  0
H  H63  1  0.43597248  0.95957195  0.63052449  1  0.086417  0  0.112636  0.115844  0  0.987976  0
H  H64  1  0.53501281  0.56691826  0.62697413  1  0.115234  0  0.116581  0.122321  0  0.983286  0
H  H65  1  0.03514068  0.48604967  0.63491389  1  0.10754  0  0.107051  0.108729  0  0.997983  0
H  H66  1  0.42721394  0.41893558  0.46908618  1  0.582417  0  0.297561  0.394591  0  0.905954  0
H  H67  1  0.72245115  0.04710917  0.96967438  1  0.555678  0  0.290017  0.378107  0  0.930724  0
C  C68  1  0.51685034  0.70964256  0.42575442  1  1.678133  0  0.285299  0.715721  0  4.152806  0
C  C69  1  0.22915973  0.93949148  0.14202000  1  -0.308182  0  -0.019544  -0.037485  0  4.017304  0
C  C70  1  0.71639826  0.76284299  0.13941747  1  0.165086  0  -0.032125  -0.06177  0  4.057087  0
C  C71  1  0.07859281  0.30106210  0.13773162  1  -0.268659  0  -0.027408  -0.049016  0  4.044436  0
C  C72  1  0.30283467  0.89747783  0.34089049  1  -0.279722  0  -0.019636  -0.033111  0  4.000286  0
C  C73  1  0.58721879  0.70919066  0.33497787  1  -0.393962  0  -0.036115  -0.075621  0  4.049259  0
C  C74  1  0.09461115  0.41656848  0.33483471  1  0.120942  0  -0.037174  -0.078664  0  4.039992  0
C  C75  1  0.30090310  0.86052481  0.38163965  1  0.138291  0  -0.016764  -0.142979  0  3.881149  0
C  C76  1  0.55756184  0.71460858  0.37641206  1  0.205802  0  -0.013915  -0.124496  0  3.896227  0
C  C77  1  0.12440782  0.44464778  0.37722962  1  -0.334094  0  -0.013284  -0.123249  0  3.889694  0
C  C78  1  0.07650685  0.20470388  0.05325266  1  1.680733  0  0.285979  0.708282  0  4.159075  0
C  C79  1  0.16938455  0.48342916  0.42615520  1  1.689674  0  0.284824  0.70544  0  4.151416  0
C  C80  1  0.14541787  0.94493873  0.05435270  1  1.656417  0  0.28802  0.721883  0  4.138576  0
C  C81  1  0.81124392  0.85206275  0.05416555  1  1.698589  0  0.28028  0.706698  0  4.161894  0
C  C82  1  0.26557201  0.83511745  0.61706422  1  0.029983  0  -0.011866  -0.049265  0  3.969546  0
C  C83  1  0.58087779  0.73623628  0.61555723  1  0.019349  0  -0.013666  -0.04673  0  3.982426  0
C  C84  1  0.15526710  0.43579464  0.61822968  1  -0.05626  0  -0.014038  -0.049561  0  3.978641  0
C  C85  1  0.35304832  0.91427457  0.64629084  1  -0.040253  0  -0.073368  -0.073342  0  3.967746  0
C  C86  1  0.57429241  0.64900657  0.64353741  1  -0.032593  0  -0.073804  -0.075357  0  3.968394  0
C  C87  1  0.08039924  0.44664344  0.64916337  1  -0.019379  0  -0.080262  -0.083156  0  3.992273  0
C  C88  1  0.33399701  0.93277884  0.69489112  1  -0.071177  0  -0.08618  -0.132064  0  3.97579  0
C  C89  1  0.61518993  0.66794903  0.69173534  1  0.033461  0  -0.089773  -0.13789  0  3.989193  0
C  C90  1  0.29884462  0.81633385  0.42982312  1  1.662708  0  0.290952  0.724226  0  4.133401  0
C  C91  1  0.06593981  0.40870320  0.69755911  1  -0.051068  0  -0.092421  -0.140231  0  3.992767  0
C  C92  1  0.22779557  0.87167300  0.71605359  1  0.01748  0  0.00302  0.07822  0  3.982984  0
C  C93  1  0.66199245  0.77370813  0.71315410  1  -0.082963  0  -0.002375  0.075334  0  4.003577  0
C  C94  1  0.12682929  0.36056349  0.71627905  1  0.001087  0  -0.001346  0.074644  0  3.99974  0
C  C95  1  0.52758467  0.71430742  0.56601157  1  1.54779  0  0.273442  0.635437  0  4.092992  0
C  C96  1  0.17981626  0.48172092  0.56749082  1  1.554515  0  0.273931  0.637636  0  4.095615  0
C  C97  1  0.28686317  0.80764656  0.56670020  1  1.520458  0  0.279919  0.647475  0  4.07395  0
C  C98  1  0.14060196  0.79277713  0.68629689  1  -0.044853  0  -0.085435  -0.13162  0  3.972232  0
C  C99  1  0.66984293  0.86085800  0.68436616  1  -0.026909  0  -0.088818  -0.135302  0  3.990041  0
C  C100  1  0.20109918  0.34946665  0.68468542  1  -0.065905  0  -0.087789  -0.133078  0  3.984425  0
C  C101  1  0.14689873  0.86392284  0.21950402  1  -0.073223  0  -0.149951  -0.210374  0  3.801522  0
C  C102  1  0.15884371  0.77514646  0.63741472  1  -0.02044  0  -0.070966  -0.070347  0  3.957606  0
C  C103  1  0.63016445  0.84256421  0.63600656  1  -0.083619  0  -0.077685  -0.079387  0  3.980414  0
C  C104  1  0.21488750  0.38597863  0.63618919  1  -0.032014  0  -0.069254  -0.071171  0  3.947392  0
C  C105  1  0.13552407  0.80129446  0.79820079  1  -0.076807  0  -0.085671  -0.133009  0  3.969324  0
C  C106  1  0.68547763  0.86720069  0.79479288  1  -0.016613  0  -0.087753  -0.134127  0  3.98239  0
C  C107  1  0.20483667  0.33319286  0.79546059  1  -0.031659  0  -0.090002  -0.137524  0  3.984403  0
C  C108  1  0.11738213  0.81855850  0.84713787  1  -0.042929  0  -0.072943  -0.071828  0  3.964466  0
C  C109  1  0.72106294  0.88569860  0.84374101  1  -0.055358  0  -0.074437  -0.073  0  3.972768  0
C  C110  1  0.19166035  0.29416315  0.84361538  1  0.00356  0  -0.079166  -0.081477  0  3.986285  0
C  C111  1  0.24643601  0.01380882  0.83825265  1  -0.075574  0  -0.074291  -0.072688  0  3.967938  0
C  C112  1  0.72473989  0.85127872  0.21525988  1  -0.033621  0  -0.147937  -0.204391  0  3.819425  0
C  C113  1  0.78740971  0.75538353  0.83489041  1  -0.027724  0  -0.079448  -0.078637  0  3.987333  0
C  C114  1  0.99439419  0.23206732  0.83821496  1  -0.021066  0  -0.076939  -0.077493  0  3.97354  0
C  C115  1  0.26436809  0.99608661  0.78936861  1  0.038419  0  -0.086227  -0.133612  0  3.972578  0
C  C116  1  0.75147622  0.73698629  0.78593480  1  -0.057792  0  -0.089889  -0.137433  0  3.98889  0
C  C117  1  0.00801740  0.27143835  0.79022048  1  0.033413  0  -0.089403  -0.136347  0  3.98828  0
C  C118  1  0.20904755  0.88967586  0.76824761  1  -0.017836  0  0.005323  0.083975  0  3.976215  0
C  C119  1  0.70017971  0.79270489  0.76503923  1  0.001337  0  0.001668  0.080908  0  3.995793  0
C  C120  1  0.11323492  0.32185956  0.76780238  1  -0.06984  0  0.000661  0.080456  0  3.994724  0
C  C121  1  0.17251315  0.92516024  0.86766991  1  0.026756  0  -0.015792  -0.059338  0  3.98302  0
C  C122  1  0.77233685  0.82985158  0.86413449  1  -0.039088  0  -0.018038  -0.056781  0  3.991092  0
C  C123  1  0.13642921  0.28940834  0.21853327  1  -0.078909  0  -0.151935  -0.211635  0  3.83546  0
C  C124  1  0.08601116  0.24249042  0.86520118  1  -0.067471  0  -0.01701  -0.053233  0  3.989288  0
C  C125  1  0.06727425  0.19213281  0.91491174  1  1.550928  0  0.270185  0.638123  0  4.092417  0
C  C126  1  0.14570791  0.94540236  0.91826371  1  1.529798  0  0.278335  0.648381  0  4.075196  0
C  C127  1  0.81650506  0.85621810  0.91533205  1  1.54746  0  0.271112  0.643777  0  4.092769  0
C  C128  1  0.35314879  0.87738854  0.25735818  1  -0.091295  0  -0.154503  -0.214911  0  3.826219  0
C  C129  1  0.51893411  0.65332989  0.25045725  1  -0.047556  0  -0.157117  -0.216321  0  3.837933  0
C  C130  1  0.13009812  0.48966352  0.25072923  1  -0.042841  0  -0.15689  -0.219414  0  3.833409  0
C  C131  1  0.32755866  0.04326782  0.27680059  1  -0.12761  0  -0.067417  -0.202401  0  3.634115  0
C  C132  1  0.70637650  0.67241043  0.27551683  1  -0.153103  0  -0.068527  -0.208754  0  3.623219  0
C  C133  1  0.95679026  0.30249083  0.26643179  1  -0.151378  0  -0.069117  -0.199794  0  3.633251  0
C  C134  1  0.16450351  0.84790509  0.27429164  1  -0.1001  0  -0.063087  -0.183822  0  3.723849  0
C  C135  1  0.31271876  0.05388529  0.21954193  1  -0.13128  0  -0.070636  -0.213441  0  3.669531  0
C  C136  1  0.73541739  0.67960577  0.21907471  1  -0.122863  0  -0.070931  -0.21329  0  3.709382  0
C  C137  1  0.95143085  0.27515804  0.20956563  1  -0.077338  0  -0.070766  -0.215463  0  3.671859  0
C  C138  1  0.19019860  0.93549962  0.10123897  1  0.10049  0  -0.025792  -0.159381  0  3.884516  0
C  C139  1  0.75484149  0.80188610  0.09949792  1  -0.402031  0  -0.023625  -0.147765  0  3.904325  0
C  C140  1  0.08962781  0.26336572  0.09908437  1  0.07671  0  -0.025602  -0.158664  0  3.889487  0
C  C141  1  0.28935875  0.92041694  0.28957385  1  0.12813  0  0.014459  0.172234  0  3.844159  0
C  C142  1  0.62324875  0.71671226  0.28427838  1  0.145193  0  0.015886  0.180509  0  3.846603  0
C  C143  1  0.08014889  0.38408752  0.28305462  1  0.117692  0  0.016474  0.183046  0  3.834536  0
C  C144  1  0.32818821  0.87832399  0.20177883  1  -0.163717  0  -0.077488  -0.219164  0  3.746749  0
C  C145  1  0.67786698  0.83958201  0.26728197  1  -0.116573  0  -0.063411  -0.188694  0  3.740906  0
C  C146  1  0.55096134  0.67672050  0.19559929  1  -0.179113  0  -0.077415  -0.217246  0  3.740049  0
C  C147  1  0.13525769  0.46150619  0.19597086  1  -0.143704  0  -0.076114  -0.21158  0  3.734741  0
C  C148  1  0.26097892  0.93843111  0.19345810  1  0.134437  0  0.010965  0.169935  0  3.854948  0
C  C149  1  0.67907080  0.73545380  0.19014452  1  0.14653  0  0.008678  0.169898  0  3.870953  0
C  C150  1  0.07185552  0.33497319  0.18787373  1  0.089441  0  0.009289  0.168963  0  3.860915  0
C  C151  1  0.15441107  0.33102748  0.27189843  1  -0.115306  0  -0.0643  -0.191669  0  3.737716  0
S  S152  1  0.45201058  0.91847932  0.16413449  1  3.076706  0  0.557638  1.180863  0  5.874304  0
S  S153  1  0.06110257  0.85240483  0.31495937  1  2.974407  0  0.546276  1.152444  0  5.797357  0
S  S154  1  0.77797048  0.93507557  0.31210880  1  3.031482  0  0.556959  1.180898  0  5.820691  0
S  S155  1  0.14037809  0.22764574  0.31707337  1  3.038987  0  0.563844  1.182058  0  5.813412  0
S  S156  1  0.46529907  0.55633136  0.15618902  1  3.067848  0  0.554668  1.178833  0  5.87086  0
S  S157  1  0.10191004  0.54474780  0.15430118  1  3.090771  0  0.551834  1.178005  0  5.88642  0
S  S158  1  0.45279981  0.14467596  0.31234478  1  3.122159  0  0.552536  1.17192  0  5.927849  0
S  S159  1  0.67454370  0.55004266  0.31384772  1  3.106575  0  0.557993  1.18605  0  5.886121  0
S  S160  1  0.85365804  0.32932388  0.29733492  1  3.121084  0  0.552186  1.175526  0  5.910883  0
S  S161  1  0.43076885  0.17048422  0.18809209  1  3.111309  0  0.547924  1.168521  0  5.930456  0
S  S162  1  0.72730598  0.55627174  0.19071170  1  3.139009  0  0.545182  1.171112  0  5.942447  0
S  S163  1  0.84021677  0.27681233  0.17189924  1  3.135381  0  0.549645  1.167835  0  5.943319  0
O  O164  1  0.25629861  0.48117054  0.43747088  1  -1.188276  0  -0.196777  -0.530426  0  2.275457  0
O  O165  1  0.24677291  0.46471870  0.54260762  1  -1.254705  0  -0.210333  -0.558342  0  2.383162  0
O  O166  1  0.20228871  0.74177061  0.54008559  1  -1.272561  0  -0.235964  -0.604345  0  2.298802  0
O  O167  1  0.54363180  0.80009657  0.54098209  1  -1.280128  0  -0.251675  -0.624105  0  2.283829  0
O  O168  1  0.46755448  0.61567633  0.55207689  1  -1.240818  0  -0.20968  -0.554592  0  2.336307  0
O  O169  1  0.13564336  0.53906861  0.55239152  1  -1.267462  0  -0.248594  -0.615175  0  2.265801  0
O  O170  1  0.38786347  0.84621835  0.55332254  1  -1.254686  0  -0.229889  -0.591888  0  2.287756  0
O  O171  1  0.33261139  0.65675192  0.49684823  1  -1.618098  0  -0.393045  -1.275422  0  2.314639  0
O  O172  1  0.00024931  0.00315578  0.98687026  1  -1.618523  0  -0.392703  -1.273111  0  2.304418  0
O  O173  1  0.98090444  0.16202572  0.03400030  1  -1.210094  0  -0.191263  -0.514853  0  2.28185  0
O  O174  1  0.19827193  0.03780978  0.03268024  1  -1.231163  0  -0.219741  -0.574682  0  2.240884  0
O  O175  1  0.21059705  0.72846355  0.44193867  1  -1.23051  0  -0.221253  -0.579251  0  2.230123  0
O  O176  1  0.84792790  0.79761558  0.02947816  1  -1.257481  0  -0.238977  -0.599082  0  2.228654  0
O  O177  1  0.80399772  0.92704646  0.93945668  1  -1.257711  0  -0.224046  -0.596691  0  2.367174  0
O  O178  1  0.15308343  0.20232980  0.93907433  1  -1.279654  0  -0.252349  -0.623441  0  2.278385  0
O  O179  1  0.07105901  0.86321853  0.94236786  1  -1.274097  0  -0.236146  -0.604293  0  2.303924  0
O  O180  1  0.96829506  0.13954177  0.93008171  1  -1.252964  0  -0.215482  -0.571656  0  2.372422  0
O  O181  1  0.19466647  0.04488444  0.93460323  1  -1.271254  0  -0.234581  -0.5996  0  2.295362  0
O  O182  1  0.86885206  0.80765508  0.93174006  1  -1.277409  0  -0.24838  -0.613792  0  2.283943  0
O  O183  1  0.45637954  0.81943343  0.15581862  1  -1.287393  0  -0.290128  -0.493535  0  2.201779  0
O  O184  1  0.45120020  0.98166403  0.12179826  1  -1.297386  0  -0.293158  -0.531433  0  2.202709  0
O  O185  1  0.55461119  0.99188242  0.19877210  1  -1.265904  0  -0.34826  -0.532023  0  2.287514  0
O  O186  1  0.52203965  0.79765445  0.44294863  1  -1.240639  0  -0.23082  -0.586073  0  2.234959  0
O  O187  1  0.36789176  0.56242547  0.14348317  1  -1.283013  0  -0.290742  -0.49532  0  2.189203  0
O  O188  1  0.53196262  0.54859401  0.11677447  1  -1.30663  0  -0.297387  -0.538067  0  2.205651  0
O  O189  1  0.42245491  0.45293689  0.19102887  1  -1.236853  0  -0.351498  -0.537959  0  2.291315  0
O  O190  1  0.20264108  0.64821563  0.14897913  1  -1.29479  0  -0.29654  -0.503234  0  2.1964  0
O  O191  1  0.04633817  0.48061187  0.11033842  1  -1.306564  0  -0.297483  -0.537056  0  2.195045  0
O  O192  1  0.02159901  0.57302258  0.18375620  1  -1.264487  0  -0.351008  -0.53692  0  2.301061  0
O  O193  1  0.48911645  0.25348260  0.29273613  1  -1.314892  0  -0.301212  -0.550391  0  2.293029  0
O  O194  1  0.41892348  0.12293664  0.36281984  1  -1.260385  0  -0.283057  -0.479321  0  2.135704  0
O  O195  1  0.54295928  0.11023401  0.30175794  1  -1.262833  0  -0.34577  -0.527305  0  2.25116  0
O  O196  1  0.73635881  0.49857921  0.29620355  1  -1.316234  0  -0.302502  -0.560447  0  2.326364  0
O  O197  1  0.82270020  0.94476804  0.04378445  1  -1.202828  0  -0.201746  -0.541063  0  2.277127  0
O  O198  1  0.69176192  0.58961360  0.36369430  1  -1.260867  0  -0.281276  -0.477895  0  2.134103  0
O  O199  1  0.54678408  0.46786163  0.30355441  1  -1.246018  0  -0.348443  -0.530927  0  2.225572  0
O  O200  1  0.74586751  0.26217669  0.27367079  1  -1.308221  0  -0.30009  -0.542223  0  2.282249  0
O  O201  1  0.86279941  0.31259276  0.34898412  1  -1.265744  0  -0.289412  -0.490219  0  2.13113  0
O  O202  1  0.89910606  0.45416700  0.28522177  1  -1.265928  0  -0.342977  -0.527262  0  2.262202  0
O  O203  1  0.41457711  0.26239846  0.19712282  1  -1.289821  0  -0.297646  -0.500601  0  2.249857  0
O  O204  1  0.53345872  0.17337049  0.20136734  1  -1.297001  0  -0.299858  -0.549444  0  2.300214  0
O  O205  1  0.40854556  0.14536042  0.13136913  1  -1.233447  0  -0.335887  -0.498954  0  2.239533  0
O  O206  1  0.83027272  0.56249103  0.20404246  1  -1.293733  0  -0.294788  -0.494282  0  2.270208  0
O  O207  1  0.62129135  0.46107189  0.20224020  1  -1.317675  0  -0.305608  -0.557417  0  2.299969  0
O  O208  1  0.16033709  0.19776387  0.03737630  1  -1.242565  0  -0.236809  -0.596621  0  2.227727  0
O  O209  1  0.73337975  0.57642627  0.13350350  1  -1.238837  0  -0.33859  -0.501134  0  2.230402  0
O  O210  1  0.74322882  0.17215520  0.17966168  1  -1.30001  0  -0.298457  -0.500303  0  2.236041  0
O  O211  1  0.83861340  0.37801508  0.18110042  1  -1.303235  0  -0.303749  -0.553602  0  2.328836  0
O  O212  1  0.87422652  0.27455180  0.11706349  1  -1.235024  0  -0.322935  -0.477713  0  2.248514  0
O  O213  1  0.96289169  0.74562737  0.31041310  1  -1.275688  0  -0.295982  -0.498311  0  2.139775  0
O  O214  1  0.10781568  0.90059443  0.36209194  1  -1.255293  0  -0.274181  -0.468098  0  2.13443  0
O  O215  1  0.03154367  0.93857524  0.28621554  1  -1.219119  0  -0.374921  -0.590732  0  2.25482  0
O  O216  1  0.72387943  0.96546466  0.34858053  1  -1.249256  0  -0.273229  -0.468108  0  2.11076  0
O  O217  1  0.84951968  0.89132230  0.32900820  1  -1.294382  0  -0.304605  -0.542686  0  2.242089  0
O  O218  1  0.85297580  0.03536352  0.27691571  1  -1.269232  0  -0.366008  -0.549286  0  2.231745  0
O  O219  1  0.05464140  0.86194827  0.03952768  1  -1.23404  0  -0.222178  -0.578959  0  2.237154  0
O  O220  1  0.22078087  0.27900383  0.35555618  1  -1.241722  0  -0.260144  -0.451131  0  2.120475  0
O  O221  1  0.02279825  0.15945605  0.33034579  1  -1.304282  0  -0.307259  -0.549201  0  2.238774  0
O  O222  1  0.17066130  0.15191151  0.28405847  1  -1.26424  0  -0.360791  -0.53858  0  2.268262  0
O  O223  1  0.47681871  0.61738644  0.44670882  1  -1.221693  0  -0.203745  -0.560147  0  2.304863  0
O  O224  1  0.11788918  0.52043113  0.45303876  1  -1.24428  0  -0.239277  -0.598697  0  2.213334  0
O  O225  1  0.38772117  0.86672250  0.45604455  1  -1.240206  0  -0.222663  -0.580166  0  2.237327  0
O  O226  1  0.38748749  0.42616885  0.49683366  1  -1.370173  0  -0.575311  -0.999036  0  1.784942  0
O  O227  1  0.79021382  0.08994449  0.98850819  1  -1.345822  0  -0.575275  -0.988726  0  1.799626  0
