# generated using pymatgen
data_Cu4MoH28C28(S2N3)2
_symmetry_space_group_name_H-M   'P 1'
_cell_length_a   9.33339429
_cell_length_b   11.71675254
_cell_length_c   19.19082998
_cell_angle_alpha   89.99886822
_cell_angle_beta   98.14004975
_cell_angle_gamma   89.99878606
_symmetry_Int_Tables_number   1
_chemical_formula_structural   Cu4MoH28C28(S2N3)2
_chemical_formula_sum   'Cu8 Mo2 H56 C56 S8 N12'
_cell_volume   2077.50887601
_cell_formula_units_Z   2
loop_
 _symmetry_equiv_pos_site_id
 _symmetry_equiv_pos_as_xyz
  1  'x, y, z'
loop_
 _atom_site_type_symbol
 _atom_site_label
 _atom_site_symmetry_multiplicity
 _atom_site_fract_x
 _atom_site_fract_y
 _atom_site_fract_z
 _atom_site_occupancy
 _atom_site_pbe_bader_charge
 _atom_site_pbe_bader_spin_density
 _atom_site_pbe_cm5_charge
 _atom_site_pbe_ddec_charge
 _atom_site_pbe_ddec_spin_density
 _atom_site_pbe_ddec_sum_bond_order
 _atom_site_pbe_magmom
Cu  Cu0  1  0.71316422  0.37483251  0.20895165  1  0.640736  0  0.524587  0.347972  0  2.947751  0
Cu  Cu1  1  0.02920832  0.38396783  0.11147762  1  0.546315  0  0.377063  0.352076  0  3.003821  0
Cu  Cu2  1  0.28681501  0.37485442  0.29105737  1  0.641549  0  0.524537  0.347759  0  2.947736  0
Cu  Cu3  1  0.97077929  0.38395368  0.38853188  1  0.546171  0  0.377075  0.352043  0  3.004045  0
Cu  Cu4  1  0.28684421  0.62520156  0.79105658  1  0.640842  0  0.524652  0.34791  0  2.947606  0
Cu  Cu5  1  0.97079270  0.61604661  0.88851185  1  0.547004  0  0.377225  0.352193  0  3.004838  0
Cu  Cu6  1  0.71317941  0.62517965  0.70894310  1  0.641338  0  0.524698  0.347925  0  2.947538  0
Cu  Cu7  1  0.02921071  0.61606076  0.61147922  1  0.547038  0  0.377121  0.352242  0  3.004322  0
Mo  Mo8  1  0.99998871  0.36462267  0.25000539  1  1.320916  0  0.747464  0.792427  0  5.257482  0
Mo  Mo9  1  0.00001651  0.63541738  0.74999949  1  1.321185  0  0.747384  0.792322  0  5.257586  0
H  H10  1  0.39973313  0.42872308  0.14888628  1  0.094145  0  0.098879  0.067343  0  1.060523  0
H  H11  1  0.27673869  0.56478711  0.06205111  1  0.112661  0  0.104306  0.135393  0  1.01014  0
H  H12  1  0.70111624  0.68247539  0.02794025  1  0.090895  0  0.103956  0.115044  0  1.032666  0
H  H13  1  0.80813492  0.53967924  0.11482868  1  0.107059  0  0.104386  0.075844  0  1.045422  0
H  H14  1  0.48193606  0.75246637  0.95172712  1  0.01421  0  0.087435  0.087259  0  0.995613  0
H  H15  1  0.30908498  0.69549371  0.96070425  1  0.062423  0  0.089419  0.107611  0  1.014461  0
H  H16  1  0.47446675  0.87070556  0.06022213  1  0.019301  0  0.085661  0.071657  0  1.003023  0
H  H17  1  0.30345218  0.81268225  0.06947231  1  0.005297  0  0.092759  0.08795  0  0.976075  0
H  H18  1  0.37354526  0.95552879  0.94430421  1  0.031046  0  0.095516  0.098019  0  0.980186  0
H  H19  1  0.20717861  0.88796537  0.94659416  1  0.056433  0  0.090584  0.11326  0  0.995902  0
H  H20  1  0.37088429  0.00988079  0.11862390  1  0.057048  0  0.104502  0.110397  0  1.01181  0
H  H21  1  0.26814973  0.18319510  0.16800278  1  0.095379  0  0.102219  0.06013  0  1.045023  0
H  H22  1  0.01604517  0.25904304  0.97943068  1  0.089463  0  0.112606  0.094777  0  0.995561  0
H  H23  1  0.09758300  0.08126961  0.92246135  1  0.106818  0  0.109995  0.120676  0  0.982907  0
H  H24  1  0.60023906  0.42872409  0.35111847  1  0.0933  0  0.098925  0.067506  0  1.060641  0
H  H25  1  0.72323806  0.56478922  0.43794502  1  0.112953  0  0.104332  0.1355  0  1.01001  0
H  H26  1  0.29887081  0.68248272  0.47207293  1  0.090655  0  0.104073  0.115244  0  1.032462  0
H  H27  1  0.19185215  0.53968436  0.38518934  1  0.107291  0  0.104346  0.075804  0  1.045555  0
H  H28  1  0.51805012  0.75247770  0.54826629  1  0.013927  0  0.087495  0.087334  0  0.995929  0
H  H29  1  0.69089857  0.69549899  0.53929540  1  0.062573  0  0.089403  0.10749  0  1.014721  0
H  H30  1  0.52552123  0.87071436  0.43976592  1  0.01908  0  0.08566  0.071656  0  1.00292  0
H  H31  1  0.69654076  0.81268163  0.43052408  1  0.0054  0  0.092738  0.087894  0  0.976065  0
H  H32  1  0.62644229  0.95552268  0.55568478  1  0.031301  0  0.095514  0.097925  0  0.980408  0
H  H33  1  0.79279907  0.88795139  0.55340015  1  0.056485  0  0.090575  0.113316  0  0.995939  0
H  H34  1  0.62911279  0.00990253  0.38137254  1  0.057465  0  0.104434  0.110316  0  1.011815  0
H  H35  1  0.73184081  0.18323632  0.33200674  1  0.066807  0  0.102217  0.060165  0  1.045054  0
H  H36  1  0.98395486  0.25903969  0.52059258  1  0.089899  0  0.112585  0.094713  0  0.995428  0
H  H37  1  0.90239882  0.08123849  0.57754556  1  0.106432  0  0.109976  0.120655  0  0.982639  0
H  H38  1  0.60027650  0.57126235  0.85110849  1  0.094318  0  0.098896  0.067383  0  1.060514  0
H  H39  1  0.72326237  0.43518722  0.93793315  1  0.112693  0  0.104367  0.135436  0  1.010001  0
H  H40  1  0.29887936  0.31752369  0.97204937  1  0.090783  0  0.103949  0.115038  0  1.03268  0
H  H41  1  0.19187040  0.46033008  0.88516370  1  0.107204  0  0.104392  0.07583  0  1.045498  0
H  H42  1  0.51804765  0.24752332  0.04825956  1  0.014076  0  0.087414  0.087166  0  0.995714  0
H  H43  1  0.69090084  0.30449428  0.03928936  1  0.062638  0  0.08942  0.107509  0  1.014664  0
H  H44  1  0.52553315  0.12927389  0.93977143  1  0.017305  0  0.085682  0.0716  0  1.003154  0
H  H45  1  0.69654772  0.18729976  0.93052125  1  0.005398  0  0.09274  0.087919  0  0.975985  0
H  H46  1  0.62645354  0.04446346  0.05569084  1  0.031318  0  0.095527  0.098037  0  0.980198  0
H  H47  1  0.79281372  0.11202347  0.05339835  1  0.055875  0  0.090673  0.113359  0  0.995887  0
H  H48  1  0.62909931  0.99009012  0.88137581  1  0.057019  0  0.104402  0.110297  0  1.011811  0
H  H49  1  0.73183388  0.81677411  0.83199588  1  0.066724  0  0.102197  0.060134  0  1.044935  0
H  H50  1  0.98395249  0.74094153  0.02057211  1  0.089397  0  0.112525  0.094707  0  0.995671  0
H  H51  1  0.90240928  0.91872179  0.07753740  1  0.10693  0  0.109989  0.120708  0  0.982863  0
H  H52  1  0.39975957  0.57127243  0.64889533  1  0.094059  0  0.098871  0.067391  0  1.06052  0
H  H53  1  0.27675833  0.43519279  0.56207799  1  0.113041  0  0.104316  0.135455  0  1.009796  0
H  H54  1  0.70113755  0.31751978  0.52794312  1  0.090445  0  0.103958  0.115084  0  1.032629  0
H  H55  1  0.80814978  0.46032581  0.61482000  1  0.107365  0  0.104331  0.075806  0  1.045488  0
H  H56  1  0.48196585  0.24752565  0.45174665  1  0.014102  0  0.087379  0.087111  0  0.995825  0
H  H57  1  0.30911634  0.30450265  0.46071538  1  0.06315  0  0.089428  0.107513  0  1.014691  0
H  H58  1  0.47447429  0.12926765  0.56023255  1  0.017166  0  0.085733  0.07168  0  1.002981  0
H  H59  1  0.30345906  0.18729611  0.56947782  1  0.005345  0  0.092744  0.087961  0  0.975966  0
H  H60  1  0.37356623  0.04447725  0.44431304  1  0.03116  0  0.095517  0.097892  0  0.980433  0
H  H61  1  0.20721057  0.11204427  0.44659410  1  0.056503  0  0.090594  0.113322  0  0.995882  0
H  H62  1  0.37089906  0.99008801  0.61861718  1  0.057166  0  0.104365  0.110242  0  1.011718  0
H  H63  1  0.26815905  0.81676702  0.66799099  1  0.066898  0  0.102254  0.060174  0  1.045145  0
H  H64  1  0.01605039  0.74096365  0.47940761  1  0.089909  0  0.112615  0.094744  0  0.99547  0
H  H65  1  0.09759891  0.91875376  0.42244837  1  0.106284  0  0.110025  0.120645  0  0.982868  0
C  C66  1  0.00303011  0.47049424  0.02726331  1  -0.720561  0  -0.344591  -0.438923  0  4.134367  0
C  C67  1  0.46355920  0.48772311  0.12202124  1  0.443881  0  0.032501  0.092365  0  3.943259  0
C  C68  1  0.39493632  0.56548492  0.07393542  1  0.033646  0  -0.082896  -0.171631  0  3.897391  0
C  C69  1  0.47924658  0.64033656  0.03975818  1  -0.000425  0  0.012673  0.166517  0  3.945482  0
C  C70  1  0.62979617  0.63023753  0.05499273  1  -0.050693  0  -0.085218  -0.178876  0  3.930538  0
C  C71  1  0.69089374  0.55056483  0.10387560  1  0.48536  0  0.042848  0.107199  0  3.913106  0
C  C72  1  0.40966640  0.72952485  0.99019527  1  -0.017915  0  -0.160939  -0.200999  0  3.930521  0
C  C73  1  0.37386693  0.83685109  0.03036712  1  0.027119  0  -0.15978  -0.126842  0  3.942652  0
C  C74  1  0.29893274  0.92717883  0.98076206  1  -0.020848  0  -0.158355  -0.201678  0  3.94359  0
C  C75  1  0.24428307  0.03078011  0.01521937  1  -0.036079  0  0.010107  0.161578  0  3.955666  0
C  C76  1  0.29164219  0.06144748  0.08525704  1  -0.053957  0  -0.094782  -0.201711  0  3.970975  0
C  C77  1  0.23539690  0.15896088  0.11308984  1  0.488382  0  0.036036  0.088157  0  3.993974  0
C  C78  1  0.09278302  0.19914556  0.00812982  1  0.475322  0  0.041003  0.093048  0  3.953726  0
C  C79  1  0.14066900  0.10196437  0.97687026  1  -0.040015  0  -0.088359  -0.19606  0  3.961565  0
C  C80  1  0.99696901  0.47047864  0.47273659  1  -0.722215  0  -0.344636  -0.438832  0  4.134721  0
C  C81  1  0.53641876  0.48772604  0.37798321  1  0.444757  0  0.032399  0.091833  0  3.943807  0
C  C82  1  0.60504686  0.56549282  0.42606586  1  0.033826  0  -0.082823  -0.17139  0  3.89738  0
C  C83  1  0.52074298  0.64034563  0.46024160  1  -0.000555  0  0.012627  0.16646  0  3.945824  0
C  C84  1  0.37019248  0.63024196  0.44502118  1  -0.051159  0  -0.085455  -0.179235  0  3.930789  0
C  C85  1  0.30908869  0.55057188  0.39614040  1  0.485549  0  0.042925  0.107236  0  3.913294  0
C  C86  1  0.59031936  0.72952681  0.50980360  1  -0.017753  0  -0.160998  -0.201063  0  3.930938  0
C  C87  1  0.62612312  0.83685553  0.46962773  1  0.027139  0  -0.159729  -0.126742  0  3.942207  0
C  C88  1  0.70105997  0.92718117  0.51923232  1  -0.020713  0  -0.158387  -0.201604  0  3.943917  0
C  C89  1  0.75570034  0.03077674  0.48478053  1  -0.036656  0  0.010049  0.161376  0  3.956363  0
C  C90  1  0.70833697  0.06147619  0.41474897  1  -0.054263  0  -0.094717  -0.201487  0  3.970983  0
C  C91  1  0.76459004  0.15899039  0.38692128  1  0.51737  0  0.035817  0.087818  0  3.994162  0
C  C92  1  0.90721024  0.19914025  0.49188387  1  0.474804  0  0.041191  0.093335  0  3.953029  0
C  C93  1  0.85931004  0.10194684  0.52313411  1  -0.039768  0  -0.088366  -0.196004  0  3.961433  0
C  C94  1  0.99701223  0.52954752  0.97270773  1  -0.318465  0  -0.344833  -0.43909  0  4.135126  0
C  C95  1  0.53644181  0.51227170  0.87796927  1  0.44375  0  0.032654  0.092508  0  3.942913  0
C  C96  1  0.60506149  0.43449709  0.92605018  1  0.033713  0  -0.083119  -0.171859  0  3.897545  0
C  C97  1  0.52075229  0.35965314  0.96022957  1  -0.00069  0  0.012627  0.16657  0  3.94553  0
C  C98  1  0.37019835  0.36975984  0.94499680  1  -0.050541  0  -0.085281  -0.17894  0  3.930494  0
C  C99  1  0.30910943  0.44944193  0.89611559  1  0.485427  0  0.043057  0.107396  0  3.913109  0
C  C100  1  0.59032484  0.27045887  0.00979716  1  -0.017598  0  -0.160855  -0.200838  0  3.930416  0
C  C101  1  0.62612866  0.16313348  0.96962509  1  0.028673  0  -0.159809  -0.126682  0  3.942592  0
C  C102  1  0.70106176  0.07280745  0.01922955  1  -0.020171  0  -0.158505  -0.201933  0  3.944118  0
C  C103  1  0.75571030  0.96920532  0.98477842  1  -0.036497  0  0.01013  0.16147  0  3.95625  0
C  C104  1  0.70833270  0.93851916  0.91474725  1  -0.053807  0  -0.094634  -0.201409  0  3.970932  0
C  C105  1  0.76458341  0.84100662  0.88691380  1  0.517175  0  0.035912  0.087885  0  3.993842  0
C  C106  1  0.90721791  0.80083901  0.99186954  1  0.475067  0  0.041088  0.093116  0  3.953548  0
C  C107  1  0.85932870  0.89802788  0.02312783  1  -0.039879  0  -0.088353  -0.196036  0  3.961475  0
C  C108  1  0.00299058  0.52955117  0.52728382  1  -0.316818  0  -0.34483  -0.43924  0  4.135144  0
C  C109  1  0.46358744  0.51227389  0.62203165  1  0.444082  0  0.032528  0.092143  0  3.943262  0
C  C110  1  0.39496258  0.43450114  0.57395027  1  0.033727  0  -0.082897  -0.171524  0  3.897323  0
C  C111  1  0.47926757  0.35965259  0.53977252  1  -0.001152  0  0.012665  0.166585  0  3.945655  0
C  C112  1  0.62981585  0.36975797  0.55499799  1  -0.050604  0  -0.085261  -0.178957  0  3.930509  0
C  C113  1  0.69091319  0.44943830  0.60387415  1  0.485023  0  0.042987  0.107262  0  3.912832  0
C  C114  1  0.40969011  0.27046374  0.49020940  1  -0.017852  0  -0.160899  -0.200777  0  3.930284  0
C  C115  1  0.37387777  0.16313075  0.53037580  1  0.028831  0  -0.159878  -0.126972  0  3.942589  0
C  C116  1  0.29895290  0.07282474  0.48076425  1  -0.020834  0  -0.158335  -0.201504  0  3.943934  0
C  C117  1  0.24429849  0.96922490  0.51521139  1  -0.036423  0  0.00996  0.161262  0  3.956055  0
C  C118  1  0.29166617  0.93851947  0.58524587  1  -0.053995  0  -0.094626  -0.201404  0  3.97074  0
C  C119  1  0.23541416  0.84101040  0.61307571  1  0.517259  0  0.035829  0.087866  0  3.994221  0
C  C120  1  0.09278961  0.80085968  0.50811542  1  0.475404  0  0.041157  0.093261  0  3.953242  0
C  C121  1  0.14068118  0.89805224  0.47686092  1  -0.040169  0  -0.088423  -0.196011  0  3.961683  0
S  S122  1  0.87512425  0.26437638  0.16172481  1  -0.678967  0  -0.42005  -0.517368  0  2.810667  0
S  S123  1  0.84740267  0.47975665  0.29655173  1  -0.616283  0  -0.396946  -0.452491  0  2.759726  0
S  S124  1  0.12487792  0.26436367  0.33827935  1  -0.679402  0  -0.420003  -0.517368  0  2.810488  0
S  S125  1  0.15254946  0.47977342  0.20346244  1  -0.616265  0  -0.397082  -0.45251  0  2.759681  0
S  S126  1  0.12487123  0.73566452  0.83827834  1  -0.679618  0  -0.419938  -0.517217  0  2.810651  0
S  S127  1  0.15261443  0.52028425  0.70345556  1  -0.616225  0  -0.397062  -0.452642  0  2.759734  0
S  S128  1  0.87513917  0.73568406  0.66172950  1  -0.679644  0  -0.419904  -0.517295  0  2.810461  0
S  S129  1  0.84744173  0.52027004  0.79653623  1  -0.616132  0  -0.397099  -0.452517  0  2.759978  0
N  N130  1  0.60879486  0.48061727  0.13781521  1  -1.299684  0  -0.368706  -0.217002  0  3.65827  0
N  N131  1  0.13932693  0.22788498  0.07547818  1  -1.236183  0  -0.335902  -0.212511  0  3.524113  0
N  N132  1  0.55809131  0.29393798  0.24401674  1  -0.230279  0  -0.136184  -0.034548  0  3.344998  0
N  N133  1  0.39118645  0.48061805  0.36220259  1  -1.299655  0  -0.368521  -0.216589  0  3.658321  0
N  N134  1  0.86067305  0.22790653  0.42453251  1  -1.236278  0  -0.335744  -0.212379  0  3.523962  0
N  N135  1  0.44186661  0.29394303  0.25598914  1  -0.116351  0  -0.136126  -0.034119  0  3.344814  0
N  N136  1  0.39120719  0.51939632  0.86218059  1  -1.29983  0  -0.368804  -0.217057  0  3.658093  0
N  N137  1  0.86066967  0.77208850  0.92452036  1  -1.236342  0  -0.335803  -0.212269  0  3.524047  0
N  N138  1  0.44190630  0.70609695  0.75599073  1  -0.22974  0  -0.136172  -0.034442  0  3.345081  0
N  N139  1  0.60881977  0.51939725  0.63781018  1  -1.299595  0  -0.36869  -0.21688  0  3.658106  0
N  N140  1  0.13932573  0.77210023  0.57546462  1  -1.236416  0  -0.335799  -0.21236  0  3.524003  0
N  N141  1  0.55812895  0.70609360  0.74400516  1  -0.116443  0  -0.136267  -0.034315  0  3.34505  0
