# generated using pymatgen
data_Al3H28C48(N3O7)2
_symmetry_space_group_name_H-M   'P 1'
_cell_length_a   12.22512562
_cell_length_b   12.70796747
_cell_length_c   27.76136952
_cell_angle_alpha   90.25154817
_cell_angle_beta   89.05688352
_cell_angle_gamma   61.38354274
_symmetry_Int_Tables_number   1
_chemical_formula_structural   Al3H28C48(N3O7)2
_chemical_formula_sum   'Al6 H56 C96 N12 O28'
_cell_volume   3785.18463436
_cell_formula_units_Z   2
loop_
 _symmetry_equiv_pos_site_id
 _symmetry_equiv_pos_as_xyz
  1  'x, y, z'
loop_
 _atom_site_type_symbol
 _atom_site_label
 _atom_site_symmetry_multiplicity
 _atom_site_fract_x
 _atom_site_fract_y
 _atom_site_fract_z
 _atom_site_occupancy
 _atom_site_pbe_bader_charge
 _atom_site_pbe_bader_spin_density
 _atom_site_pbe_cm5_charge
 _atom_site_pbe_ddec_charge
 _atom_site_pbe_ddec_spin_density
 _atom_site_pbe_ddec_sum_bond_order
 _atom_site_pbe_magmom
Al  Al0  1  0.38630827  0.43100252  0.50363703  1  2.49369  0  0.390547  1.688042  0  2.565726  0
Al  Al1  1  0.42820202  0.65976537  0.49937603  1  2.480067  0  0.506542  1.662975  0  2.500726  0
Al  Al2  1  0.65383355  0.41661757  0.50080447  1  2.480484  0  0.503762  1.661836  0  2.510993  0
Al  Al3  1  0.93948843  0.91291621  0.01472565  1  2.494643  0  0.395152  1.687221  0  2.5552  0
Al  Al4  1  0.67597138  0.91697074  0.01489949  1  2.478224  0  0.50351  1.658233  0  2.513326  0
Al  Al5  1  0.90561074  0.67778732  0.01615160  1  2.47843  0  0.501368  1.662552  0  2.510703  0
H  H6  1  0.16507382  0.48258900  0.77111829  1  0.06173  0  0.099855  0.099573  0  0.996291  0
H  H7  1  0.81908884  0.17977599  0.38200425  1  0.078453  0  0.102839  0.107435  0  1.011485  0
H  H8  1  0.97891463  0.04603232  0.22171138  1  0.06054  0  0.098231  0.097999  0  1.021803  0
H  H9  1  0.95617345  0.09654408  0.30882241  1  0.046657  0  0.095886  0.097099  0  1.006923  0
H  H10  1  0.43162658  0.27999169  0.37724003  1  0.091106  0  0.106746  0.109785  0  1.039417  0
H  H11  1  0.06040139  0.53921465  0.14422749  1  0.055778  0  0.101625  0.100153  0  1.038622  0
H  H12  1  0.12355536  0.42622664  0.31060067  1  0.043378  0  0.09726  0.09532  0  1.051811  0
H  H13  1  0.13869051  0.83192571  0.13372783  1  0.08521  0  0.108441  0.11485  0  1.002788  0
H  H14  1  0.21800367  0.89525404  0.20361376  1  0.047019  0  0.098134  0.100546  0  1.002358  0
H  H15  1  0.26603616  0.88135774  0.29030469  1  0.051409  0  0.094232  0.091888  0  1.026548  0
H  H16  1  0.28095602  0.78509882  0.36983386  1  0.073967  0  0.103312  0.109853  0  1.01531  0
H  H17  1  0.98781032  0.66628329  0.71347307  1  0.082386  0  0.102076  0.094817  0  0.99929  0
H  H18  1  0.62872347  0.36696099  0.74405867  1  0.092991  0  0.107078  0.125768  0  1.004088  0
H  H19  1  0.45374239  0.80894673  0.78807477  1  0.06948  0  0.104068  0.102515  0  0.984066  0
H  H20  1  0.37601435  0.34735249  0.79177370  1  0.425135  0  0.288057  0.276313  0  0.998645  0
H  H21  1  0.46282256  0.34131220  0.83898942  1  0.428765  0  0.303072  0.302546  0  0.941086  0
H  H22  1  0.49532217  0.13629954  0.72685514  1  0.057222  0  0.105854  0.104924  0  0.98503  0
H  H23  1  0.71519358  0.95091996  0.76905065  1  0.080684  0  0.097474  0.094147  0  1.033876  0
H  H24  1  0.43790926  0.44609243  0.74327555  1  0.412225  0  0.282236  0.262474  0  1.032776  0
H  H25  1  0.37887982  0.47686935  0.68808583  1  0.427138  0  0.298056  0.294711  0  0.948706  0
H  H26  1  0.31933853  0.69205719  0.80112869  1  0.080801  0  0.108803  0.111124  0  0.981938  0
H  H27  1  0.54411804  0.89750644  0.14843919  1  0.10883  0  0.10661  0.11609  0  1.010427  0
H  H28  1  0.13926820  0.87683525  0.74399946  1  0.074379  0  0.102703  0.093084  0  1.000133  0
H  H29  1  0.54668188  0.95057416  0.72800120  1  0.410678  0  0.28433  0.273352  0  1.005338  0
H  H30  1  0.62219880  0.87176618  0.67861443  1  0.407648  0  0.295165  0.289524  0  0.95428  0
H  H31  1  0.44922968  0.97259186  0.23029206  1  0.086512  0  0.094403  0.099171  0  1.067862  0
H  H32  1  0.80579411  0.52465121  0.12481663  1  0.092215  0  0.108182  0.114689  0  1.000631  0
H  H33  1  0.84715404  0.33217988  0.34506438  1  0.427526  0  0.29991  0.287482  0  0.987331  0
H  H34  1  0.79830295  0.38940087  0.40281474  1  0.5025  0  0.307034  0.313375  0  0.988336  0
H  H35  1  0.52106846  0.58415125  0.74234369  1  0.114471  0  0.094637  0.09581  0  1.063789  0
H  H36  1  0.39667799  0.25436419  0.13526189  1  0.443749  0  0.314009  0.304112  0  0.929792  0
H  H37  1  0.49232558  0.15333561  0.09251652  1  0.493977  0  0.302783  0.308902  0  0.982777  0
H  H38  1  0.25724864  0.25565323  0.21773965  1  0.459146  0  0.272562  0.263434  0  1.043683  0
H  H39  1  0.95139377  0.83510621  0.78886586  1  0.072592  0  0.101193  0.092764  0  1.001723  0
H  H40  1  0.35872941  0.15370942  0.17811763  1  0.444639  0  0.288658  0.276067  0  1.013043  0
H  H41  1  0.34974996  0.18559953  0.34382441  1  0.416154  0  0.300111  0.28313  0  0.957171  0
H  H42  1  0.28826917  0.17621984  0.29095360  1  0.409654  0  0.293777  0.27808  0  0.973696  0
H  H43  1  0.21592946  0.46541491  0.42442880  1  0.555246  0  0.314138  0.340194  0  0.956647  0
H  H44  1  0.17364810  0.41557919  0.37281598  1  0.420687  0  0.30606  0.295915  0  0.967205  0
H  H45  1  0.03421568  0.43902069  0.18977099  1  0.438776  0  0.295198  0.279566  0  0.976514  0
H  H46  1  0.03488458  0.38619901  0.24395252  1  0.41479  0  0.294477  0.281258  0  0.969163  0
H  H47  1  0.78534393  0.37531369  0.79728540  1  0.458967  0  0.267569  0.266304  0  1.054736  0
H  H48  1  0.77670730  0.46358501  0.84349451  1  0.399857  0  0.288056  0.282752  0  0.973394  0
H  H49  1  0.87509025  0.51979296  0.72912133  1  0.06268  0  0.099826  0.101024  0  0.994905  0
H  H50  1  0.51190188  0.79529188  0.38595736  1  0.095913  0  0.110713  0.116446  0  0.996265  0
H  H51  1  0.80801880  0.74302658  0.77538955  1  0.066965  0  0.094529  0.092832  0  1.028311  0
H  H52  1  0.94440030  0.14667231  0.76716843  1  0.424617  0  0.292755  0.279834  0  0.966699  0
H  H53  1  0.89525452  0.14947883  0.82371891  1  0.430036  0  0.30095  0.291686  0  0.947105  0
H  H54  1  0.94463850  0.93596035  0.71490899  1  0.428855  0  0.284314  0.277726  0  1.015358  0
H  H55  1  0.86822418  0.01364403  0.66695970  1  0.411831  0  0.295867  0.292526  0  0.963213  0
H  H56  1  0.44390648  0.93635602  0.31726736  1  0.036203  0  0.096716  0.090329  0  1.013726  0
H  H57  1  0.85222381  0.37921052  0.19252594  1  0.061094  0  0.105477  0.108341  0  0.987763  0
H  H58  1  0.84887962  0.34333545  0.27805415  1  0.033395  0  0.096444  0.084086  0  1.054093  0
H  H59  1  0.88808896  0.02964834  0.14548504  1  0.114344  0  0.110727  0.119812  0  1.010998  0
H  H60  1  0.29360465  0.30996548  0.52370622  1  0.573417  0  0.293664  0.385042  0  0.919804  0
H  H61  1  0.09550144  0.96049353  0.03561946  1  0.561165  0  0.287597  0.375186  0  0.935809  0
C  C62  1  0.27151199  0.64467626  0.56956424  1  1.679229  0  0.276396  0.712226  0  4.162482  0
C  C63  1  0.65581437  0.62736785  0.66038432  1  -0.364228  0  -0.013481  0.005617  0  4.05314  0
C  C64  1  0.77695727  0.08415423  0.73118110  1  0.46057  0  0.092294  0.188713  0  3.765517  0
C  C65  1  0.61776063  0.60013226  0.56881936  1  1.612508  0  0.280246  0.725541  0  4.147083  0
C  C66  1  0.76757525  0.17352099  0.77277681  1  0.413724  0  0.090727  0.200493  0  3.736285  0
C  C67  1  0.71058764  0.08519089  0.89717074  1  -0.288731  0  -0.037795  -0.196823  0  3.963017  0
C  C68  1  0.62664868  0.23738524  0.61662724  1  0.021318  0  -0.045448  -0.209187  0  3.970273  0
C  C69  1  0.69552073  0.04316626  0.76283874  1  -0.072033  0  -0.078172  -0.148611  0  3.645799  0
C  C70  1  0.68745222  0.13232232  0.80464720  1  0.090603  0  0.002659  0.020678  0  3.817708  0
C  C71  1  0.57427094  0.14453090  0.74066002  1  -0.036438  0  -0.076631  -0.139128  0  3.651243  0
C  C72  1  0.65407975  0.18602179  0.70879604  1  0.117234  0  0.001776  0.083009  0  3.848042  0
C  C73  1  0.64496856  0.61943559  0.61703060  1  0.141517  0  -0.05068  -0.228539  0  3.965742  0
C  C74  1  0.56345894  0.23337514  0.78180128  1  0.480569  0  0.09822  0.259037  0  3.774839  0
C  C75  1  0.64617004  0.27541362  0.75032758  1  -0.098825  0  -0.084148  -0.228166  0  3.569728  0
C  C76  1  0.70198521  0.10581096  0.85414184  1  -0.009143  0  -0.028884  -0.023988  0  4.095602  0
C  C77  1  0.60000499  0.28847635  0.56938790  1  1.676265  0  0.276805  0.715065  0  4.166305  0
C  C78  1  0.63870541  0.21340850  0.65934367  1  -0.347894  0  -0.027242  -0.026832  0  4.086703  0
C  C79  1  0.06073833  0.67200981  0.73372983  1  -0.034402  0  -0.073793  -0.080142  0  3.669088  0
C  C80  1  0.16033287  0.56965049  0.76466809  1  -0.062238  0  -0.084583  -0.173088  0  3.632404  0
C  C81  1  0.10752436  0.66418342  0.89919731  1  0.118124  0  -0.042988  -0.19649  0  3.972266  0
C  C82  1  0.21392020  0.68645067  0.61635848  1  -0.005873  0  -0.041732  -0.19889  0  3.956736  0
C  C83  1  0.04089609  0.76679130  0.77380842  1  -0.052564  0  -0.073048  -0.089857  0  3.635158  0
C  C84  1  0.74465066  0.70738753  0.76723049  1  -0.075147  0  -0.081195  -0.15413  0  3.637078  0
C  C85  1  0.14174948  0.66370158  0.80557043  1  0.080804  0  0.007172  0.137058  0  3.825309  0
C  C86  1  0.14526893  0.78936194  0.75033155  1  -0.027749  0  -0.073502  -0.08661  0  3.651409  0
C  C87  1  0.16450812  0.69563267  0.70907651  1  0.056784  0  0.004443  0.065914  0  3.807305  0
C  C88  1  0.24562055  0.68707727  0.78114457  1  -0.038734  0  -0.068777  -0.128174  0  3.588586  0
C  C89  1  0.28192929  0.63093839  0.43213034  1  1.494916  0  0.264902  0.647163  0  4.081847  0
C  C90  1  0.26613134  0.59239524  0.74082108  1  0.460717  0  0.100288  0.254975  0  3.746052  0
C  C91  1  0.12626481  0.65721348  0.85577938  1  -0.390182  0  -0.028901  -0.04417  0  4.081207  0
C  C92  1  0.18518102  0.69927109  0.65908622  1  -0.251351  0  -0.028288  -0.029649  0  4.07931  0
C  C93  1  0.57443498  0.72370025  0.36140750  1  -0.007148  0  -0.072546  -0.109214  0  3.9603  0
C  C94  1  0.57692279  0.74646893  0.31244163  1  0.041612  0  -0.018946  0.04496  0  4.073615  0
C  C95  1  0.66534347  0.68421159  0.80750756  1  0.106677  0  0.001997  0.06758  0  3.822985  0
C  C96  1  0.58502934  0.78773164  0.21194335  1  0.024428  0  -0.0023  0.085141  0  4.019193  0
C  C97  1  0.50654433  0.88324460  0.24458193  1  -0.080487  0  -0.098211  -0.143116  0  3.996894  0
C  C98  1  0.50324052  0.86294507  0.29264991  1  -0.001294  0  -0.088626  -0.117277  0  4.027589  0
C  C99  1  0.59562331  0.80740780  0.16281892  1  -0.009258  0  -0.0774  -0.137302  0  3.905403  0
C  C100  1  0.67675640  0.71325782  0.13208372  1  -0.051427  0  -0.018542  -0.048732  0  4.030574  0
C  C101  1  0.62944657  0.59339121  0.43220604  1  1.499336  0  0.272613  0.65772  0  4.054461  0
C  C102  1  0.73174054  0.51273744  0.35006986  1  0.50929  0  0.127185  0.279422  0  4.00234  0
C  C103  1  0.72872822  0.53176236  0.29911252  1  0.005777  0  -0.017083  -0.040555  0  3.980843  0
C  C104  1  0.65442510  0.64862237  0.28067879  1  0.00218  0  0.010754  0.028627  0  3.925365  0
C  C105  1  0.79811015  0.43557246  0.26569323  1  -0.035415  0  -0.09321  -0.118037  0  4.029984  0
C  C106  1  0.78205166  0.58384909  0.74282933  1  -0.039665  0  -0.084572  -0.156738  0  3.652221  0
C  C107  1  0.80010645  0.45466913  0.21728928  1  -0.052389  0  -0.092128  -0.142686  0  4.021648  0
C  C108  1  0.73402746  0.57269216  0.19813485  1  -0.031816  0  -0.007504  0.076655  0  4.047606  0
C  C109  1  0.65730481  0.66940702  0.23034309  1  -0.045021  0  0.012491  0.013521  0  3.873523  0
C  C110  1  0.74390492  0.59654799  0.14940798  1  -0.019015  0  -0.08299  -0.150194  0  3.940999  0
C  C111  1  0.64939802  0.61023085  0.38103616  1  -0.05123  0  -0.028786  -0.179091  0  3.961393  0
C  C112  1  0.74022764  0.18969736  0.36101590  1  -0.028726  0  -0.094823  -0.171043  0  3.974181  0
C  C113  1  0.59878071  0.28946677  0.43271423  1  1.551372  0  0.267676  0.640751  0  4.080731  0
C  C114  1  0.75642613  0.15692524  0.31206874  1  -0.038938  0  -0.009317  0.082999  0  4.041555  0
C  C115  1  0.78358644  0.09891522  0.21214816  1  -0.050954  0  -0.019385  0.056603  0  4.077641  0
C  C116  1  0.88797158  0.08316232  0.23987749  1  -0.029343  0  -0.088685  -0.113849  0  4.015939  0
C  C117  1  0.66327885  0.64332630  0.71037868  1  0.074225  0  0.001979  0.067932  0  3.809952  0
C  C118  1  0.87534464  0.11121610  0.28784487  1  -0.039952  0  -0.104654  -0.162588  0  4.050241  0
C  C119  1  0.79690938  0.06852414  0.16338533  1  -0.0019  0  -0.08299  -0.128443  0  3.975864  0
C  C120  1  0.69459609  0.08749570  0.13563608  1  -0.007306  0  -0.030228  -0.168694  0  3.985775  0
C  C121  1  0.52159365  0.24218805  0.35841343  1  -0.024183  0  -0.088615  -0.143048  0  3.93727  0
C  C122  1  0.53471415  0.20735088  0.30971137  1  0.008615  0  -0.01021  -0.000494  0  4.044149  0
C  C123  1  0.65152623  0.16986378  0.28524270  1  -0.014283  0  0.001702  0.006058  0  3.927596  0
C  C124  1  0.43606140  0.20387634  0.28400976  1  0.382443  0  0.078097  0.132207  0  4.056243  0
C  C125  1  0.62270939  0.76956637  0.73537458  1  0.456978  0  0.09913  0.254487  0  3.767084  0
C  C126  1  0.44353184  0.18649788  0.23426523  1  0.402939  0  0.073483  0.131487  0  4.037367  0
C  C127  1  0.55765101  0.15915559  0.20809821  1  -0.017264  0  -0.016611  -0.116874  0  3.959262  0
C  C128  1  0.70366336  0.55806689  0.78299610  1  0.471644  0  0.100018  0.261423  0  3.744566  0
C  C129  1  0.66363684  0.14299219  0.23508193  1  0.029169  0  -0.001238  0.011829  0  3.962356  0
C  C130  1  0.57278931  0.14025786  0.15690575  1  0.406758  0  0.109856  0.25817  0  3.983019  0
C  C131  1  0.62262797  0.23624924  0.38347224  1  -0.072191  0  -0.022985  -0.04313  0  4.039646  0
C  C132  1  0.20114585  0.56079252  0.36243775  1  0.524446  0  0.129839  0.279094  0  3.999692  0
C  C133  1  0.17215955  0.57059782  0.31202908  1  0.046688  0  -0.017033  -0.020857  0  4.012248  0
C  C134  1  0.12095146  0.58401321  0.21132374  1  0.019378  0  -0.011349  -0.009056  0  4.007026  0
C  C135  1  0.11076802  0.49684625  0.24126522  1  0.361893  0  0.084392  0.233216  0  4.070844  0
C  C136  1  0.13314659  0.49375137  0.28972320  1  -0.047888  0  -0.109391  -0.239127  0  4.010068  0
C  C137  1  0.54691630  0.74357800  0.77501267  1  -0.031827  0  -0.074301  -0.129663  0  3.632685  0
C  C138  1  0.09166822  0.59607642  0.16224941  1  -0.035543  0  -0.09403  -0.154427  0  3.973816  0
C  C139  1  0.58447627  0.61947972  0.75080169  1  -0.052634  0  -0.072516  -0.124509  0  3.583983  0
C  C140  1  0.09667147  0.68589024  0.13500248  1  -0.022126  0  -0.022747  -0.047526  0  4.045367  0
C  C141  1  0.24926958  0.72706196  0.35308320  1  -0.029115  0  -0.084994  -0.128444  0  3.991855  0
C  C142  1  0.22258243  0.73717550  0.30421026  1  0.014142  0  -0.024913  0.044574  0  4.091669  0
C  C143  1  0.18430109  0.65690412  0.28334686  1  -0.053685  0  -0.00108  0.004516  0  3.952155  0
C  C144  1  0.23406660  0.82273761  0.27418119  1  -0.045903  0  -0.090905  -0.11454  0  4.032055  0
C  C145  1  0.20785302  0.83044049  0.22633939  1  -0.050212  0  -0.103102  -0.158409  0  4.037326  0
C  C146  1  0.16747931  0.75272696  0.20441380  1  0.008448  0  -0.005135  0.084468  0  4.031568  0
C  C147  1  0.15786035  0.66400964  0.23327526  1  -0.018026  0  0.009124  0.02063  0  3.895819  0
C  C148  1  0.13557455  0.76265655  0.15580566  1  -0.01501  0  -0.084287  -0.150127  0  3.939574  0
C  C149  1  0.68703289  0.70845068  0.90052789  1  0.19841  0  -0.046534  -0.22095  0  3.961007  0
C  C150  1  0.67369264  0.70011349  0.85740863  1  -0.479513  0  -0.013117  -0.000241  0  4.058611  0
C  C151  1  0.24036094  0.64143946  0.38229545  1  0.01168  0  -0.033862  -0.182145  0  3.984797  0
C  C152  1  0.73002519  0.04101183  0.94561089  1  1.690134  0  0.277186  0.702833  0  4.175541  0
C  C153  1  0.71632744  0.72852540  0.94829054  1  1.638288  0  0.280881  0.723506  0  4.152755  0
C  C154  1  0.05880391  0.69908130  0.94751613  1  1.684019  0  0.27552  0.707918  0  4.171783  0
C  C155  1  0.72373280  0.04533852  0.08483686  1  1.528767  0  0.266808  0.644544  0  4.070969  0
C  C156  1  0.70177492  0.73966477  0.08234276  1  1.541852  0  0.279357  0.655839  0  4.061851  0
C  C157  1  0.05011355  0.70725891  0.08500034  1  1.534222  0  0.270179  0.647877  0  4.077613  0
N  N158  1  0.45437992  0.29533793  0.81039995  1  -1.208306  0  -0.614024  -0.65458  0  3.279012  0
N  N159  1  0.73439978  0.45891270  0.81279232  1  -1.20482  0  -0.624933  -0.667177  0  3.303692  0
N  N160  1  0.86945425  0.18611619  0.79041790  1  -1.175007  0  -0.596284  -0.616128  0  3.245784  0
N  N161  1  0.88565499  0.01880775  0.70242323  1  -1.203666  0  -0.616768  -0.654475  0  3.280473  0
N  N162  1  0.38389654  0.51270680  0.72043271  1  -1.187074  0  -0.609285  -0.643039  0  3.303312  0
N  N163  1  0.56990210  0.87500223  0.70814852  1  -1.165399  0  -0.616833  -0.651765  0  3.285379  0
N  N164  1  0.81226768  0.40379911  0.36775348  1  -1.256603  0  -0.587286  -0.593136  0  3.368857  0
N  N165  1  0.46957251  0.17176064  0.12818950  1  -1.253576  0  -0.594406  -0.614443  0  3.320321  0
N  N166  1  0.34264483  0.18019058  0.21333683  1  -1.245632  0  -0.61735  -0.624471  0  3.365112  0
N  N167  1  0.33084705  0.21567032  0.30945572  1  -1.172095  0  -0.594803  -0.58708  0  3.329202  0
N  N168  1  0.19156929  0.47669027  0.38909077  1  -1.268563  0  -0.569781  -0.578413  0  3.357188  0
N  N169  1  0.08314495  0.41123386  0.22064657  1  -1.203915  0  -0.594956  -0.599987  0  3.322405  0
O  O170  1  0.49320711  0.31842157  0.55304583  1  -1.221252  0  -0.215444  -0.572677  0  2.2851  0
O  O171  1  0.82124820  0.65016030  0.96460506  1  -1.247686  0  -0.231022  -0.592201  0  2.246053  0
O  O172  1  0.03880899  0.62408035  0.97238697  1  -1.257319  0  -0.246974  -0.609956  0  2.230405  0
O  O173  1  0.29842423  0.53803355  0.55894413  1  -1.215529  0  -0.211251  -0.56005  0  2.296481  0
O  O174  1  0.04501965  0.79629838  0.06287727  1  -1.255569  0  -0.223767  -0.590076  0  2.357468  0
O  O175  1  0.83358292  0.00866480  0.06921545  1  -1.248498  0  -0.21468  -0.563157  0  2.378935  0
O  O176  1  0.63691974  0.04226548  0.05889028  1  -1.277885  0  -0.253567  -0.626462  0  2.29591  0
O  O177  1  0.63266523  0.84498655  0.06604139  1  -1.278308  0  -0.235819  -0.601591  0  2.296412  0
O  O178  1  0.79603636  0.65773570  0.05924107  1  -1.274537  0  -0.236249  -0.604684  0  2.306385  0
O  O179  1  0.01210657  0.63571813  0.06788922  1  -1.285053  0  -0.251326  -0.618395  0  2.28435  0
O  O180  1  0.83953504  0.83497060  0.01480568  1  -1.605839  0  -0.391139  -1.266696  0  2.299092  0
O  O181  1  0.53766282  0.67808772  0.45542097  1  -1.268587  0  -0.240422  -0.604834  0  2.299791  0
O  O182  1  0.29529318  0.71564894  0.54373349  1  -1.25977  0  -0.241587  -0.603758  0  2.229274  0
O  O183  1  0.51725613  0.68175536  0.55073314  1  -1.251559  0  -0.230622  -0.5916  0  2.241925  0
O  O184  1  0.69299885  0.50016559  0.54813724  1  -1.245552  0  -0.233414  -0.598756  0  2.246403  0
O  O185  1  0.68637823  0.30369035  0.54870058  1  -1.25125  0  -0.238508  -0.59669  0  2.235625  0
O  O186  1  0.49099407  0.32686864  0.45095813  1  -1.254642  0  -0.220034  -0.575584  0  2.38089  0
O  O187  1  0.28164086  0.54908336  0.45844554  1  -1.263593  0  -0.222737  -0.57968  0  2.392507  0
O  O188  1  0.32162637  0.70290707  0.44747980  1  -1.280951  0  -0.254877  -0.621508  0  2.279757  0
O  O189  1  0.70077664  0.49136861  0.45192357  1  -1.277226  0  -0.23906  -0.607338  0  2.318876  0
O  O190  1  0.68801663  0.29966846  0.45321719  1  -1.279639  0  -0.255849  -0.62576  0  2.271224  0
O  O191  1  0.49100874  0.50270942  0.50176177  1  -1.611183  0  -0.391645  -1.269653  0  2.307972  0
O  O192  1  0.03445311  0.80335270  0.96056113  1  -1.212248  0  -0.205118  -0.547599  0  2.295201  0
O  O193  1  0.83036392  0.02063140  0.96530935  1  -1.218828  0  -0.200629  -0.527631  0  2.275303  0
O  O194  1  0.64337594  0.02181938  0.96383725  1  -1.254436  0  -0.242862  -0.604218  0  2.237235  0
O  O195  1  0.63902614  0.82532969  0.97030800  1  -1.244872  0  -0.230111  -0.593355  0  2.247915  0
O  O196  1  0.28423022  0.36944394  0.50023813  1  -1.365854  0  -0.57498  -0.99993  0  1.821098  0
O  O197  1  0.02765449  0.98851248  0.01333855  1  -1.353279  0  -0.579988  -0.994571  0  1.799554  0
