# generated using pymatgen
data_Al2H33C38N6O10F7
_symmetry_space_group_name_H-M   'P 1'
_cell_length_a   6.74456157
_cell_length_b   20.53876681
_cell_length_c   22.48896868
_cell_angle_alpha   87.02326255
_cell_angle_beta   89.23235957
_cell_angle_gamma   89.51017666
_symmetry_Int_Tables_number   1
_chemical_formula_structural   Al2H33C38N6O10F7
_chemical_formula_sum   'Al4 H66 C76 N12 O20 F14'
_cell_volume   3110.70500341
_cell_formula_units_Z   2
loop_
 _symmetry_equiv_pos_site_id
 _symmetry_equiv_pos_as_xyz
  1  'x, y, z'
loop_
 _atom_site_type_symbol
 _atom_site_label
 _atom_site_symmetry_multiplicity
 _atom_site_fract_x
 _atom_site_fract_y
 _atom_site_fract_z
 _atom_site_occupancy
 _atom_site_pbe_bader_charge
 _atom_site_pbe_bader_spin_density
 _atom_site_pbe_cm5_charge
 _atom_site_pbe_ddec_charge
 _atom_site_pbe_ddec_spin_density
 _atom_site_pbe_ddec_sum_bond_order
 _atom_site_pbe_magmom
Al  Al0  1  0.16446737  0.50027619  0.49936532  1  2.503136  0  0.40426  1.638584  0  2.571858  0
Al  Al1  1  0.66494775  0.49970791  0.49894435  1  2.501915  0  0.402157  1.638751  0  2.577703  0
Al  Al2  1  0.60299664  0.00032315  0.99832168  1  2.50039  0  0.403668  1.642892  0  2.576339  0
Al  Al3  1  0.10246079  0.00162086  0.00365566  1  2.499255  0  0.404831  1.642872  0  2.570051  0
H  H4  1  0.63435849  0.09165649  0.82005709  1  0.11224  0  0.111405  0.118761  0  1.015125  0
H  H5  1  0.08192017  0.89505166  0.16638234  1  0.086964  0  0.110091  0.108798  0  1.01984  0
H  H6  1  0.10648923  0.18296361  0.91002647  1  0.095187  0  0.106163  0.113308  0  1.009642  0
H  H7  1  0.65551267  0.83853812  0.10458568  1  0.114308  0  0.11035  0.123146  0  1.005101  0
H  H8  1  0.28034527  0.36917778  0.78975565  1  0.040299  0  0.111422  0.127982  0  1.005161  0
H  H9  1  0.84295016  0.65268626  0.22393600  1  0.078964  0  0.111032  0.127083  0  1.006228  0
H  H10  1  0.67434053  0.33166420  0.60115606  1  0.094272  0  0.107309  0.116762  0  1.00161  0
H  H11  1  0.12785268  0.65416620  0.38619562  1  0.068645  0  0.103806  0.111326  0  1.020974  0
H  H12  1  0.15045370  0.17878404  0.21567414  1  0.087939  0  0.106231  0.130902  0  0.996763  0
H  H13  1  0.65577809  0.81078332  0.77822197  1  0.125613  0  0.105808  0.134858  0  1.01268  0
H  H14  1  0.99555575  0.14151104  0.27088962  1  0.097217  0  0.108222  0.130801  0  0.96572  0
H  H15  1  0.51225156  0.85595400  0.72595181  1  0.089774  0  0.10969  0.134163  0  0.96215  0
H  H16  1  0.20851629  0.26699089  0.27509250  1  0.138388  0  0.104854  0.056492  0  1.067215  0
H  H17  1  0.67182428  0.72174129  0.71860389  1  0.127266  0  0.109054  0.057406  0  1.049032  0
H  H18  1  0.93363200  0.26434868  0.09643101  1  0.413686  0  0.297924  0.252045  0  0.947363  0
H  H19  1  0.24491156  0.21800622  0.13362102  1  0.043164  0  0.088489  0.091299  0  1.00885  0
H  H20  1  0.27809139  0.29199175  0.17077615  1  0.106467  0  0.09805  0.114546  0  1.046844  0
H  H21  1  0.28025776  0.29321924  0.09233908  1  0.052508  0  0.101978  0.115078  0  0.967918  0
H  H22  1  0.44317755  0.73375557  0.89725643  1  0.410446  0  0.298986  0.252673  0  0.945968  0
H  H23  1  0.76177170  0.76060949  0.85513884  1  0.029283  0  0.087474  0.094395  0  1.014475  0
H  H24  1  0.74332661  0.69282972  0.80895048  1  0.102176  0  0.100519  0.116268  0  1.032548  0
H  H25  1  0.76930921  0.67950712  0.88637770  1  0.055884  0  0.099683  0.11264  0  0.97058  0
H  H26  1  0.53399556  0.28102121  0.37657578  1  0.396242  0  0.306008  0.255561  0  0.95022  0
H  H27  1  0.32004436  0.35515817  0.33663179  1  0.043482  0  0.093993  0.101395  0  1.015598  0
H  H28  1  0.41916983  0.34724416  0.26347553  1  0.042376  0  0.091142  0.101309  0  1.046671  0
H  H29  1  0.56025911  0.38505955  0.31827258  1  0.053841  0  0.08204  0.088217  0  1.052688  0
H  H30  1  0.89941203  0.77012060  0.65924335  1  0.432459  0  0.284623  0.235535  0  1.005488  0
H  H31  1  0.02305363  0.67020678  0.60469864  1  0.037354  0  0.084424  0.089917  0  1.027731  0
H  H32  1  0.79703966  0.66791787  0.64531062  1  0.032563  0  0.090663  0.095889  0  1.04075  0
H  H33  1  0.01138364  0.63233472  0.67750700  1  0.065429  0  0.087384  0.098726  0  1.061822  0
H  H34  1  0.10968676  0.37961664  0.26756567  1  0.416032  0  0.293173  0.23646  0  0.99372  0
H  H35  1  0.23427133  0.43596949  0.18003598  1  0.060989  0  0.10299  0.113139  0  0.975293  0
H  H36  1  0.97899722  0.45789226  0.19072906  1  0.032007  0  0.086571  0.086247  0  1.005412  0
H  H37  1  0.04733624  0.39933778  0.13794046  1  0.124408  0  0.104342  0.119687  0  1.015791  0
H  H38  1  0.50667907  0.60805643  0.72590132  1  0.418474  0  0.292138  0.23766  0  0.989793  0
H  H39  1  0.59943330  0.54272465  0.81005964  1  0.045061  0  0.102896  0.111254  0  0.977  0
H  H40  1  0.33372653  0.54425120  0.80945641  1  0.019634  0  0.08438  0.08036  0  1.014381  0
H  H41  1  0.46491101  0.59500496  0.85723544  1  0.122655  0  0.105416  0.120544  0  1.01497  0
H  H42  1  0.22544299  0.43799930  0.73814900  1  0.41993  0  0.302432  0.235462  0  0.98777  0
H  H43  1  0.91344735  0.51133912  0.68964325  1  0.004041  0  0.098288  0.105188  0  0.981725  0
H  H44  1  0.12046281  0.52609673  0.64124646  1  0.103612  0  0.102963  0.118352  0  1.042499  0
H  H45  1  0.13895967  0.54022644  0.71837004  1  0.04989  0  0.097507  0.103063  0  1.036977  0
H  H46  1  0.83976228  0.59516238  0.28828506  1  0.387189  0  0.298927  0.236416  0  0.978394  0
H  H47  1  0.59557741  0.50076425  0.27249593  1  0.015386  0  0.087083  0.088192  0  1.00099  0
H  H48  1  0.61908812  0.48904884  0.35149934  1  0.081703  0  0.104096  0.117197  0  1.033554  0
H  H49  1  0.83147080  0.48507750  0.30545817  1  0.027646  0  0.100097  0.110113  0  0.998444  0
H  H50  1  0.43710277  0.12727998  0.67524978  1  0.426297  0  0.300259  0.245946  0  0.949018  0
H  H51  1  0.24896633  0.06891702  0.75384868  1  0.05903  0  0.102625  0.115034  0  0.973278  0
H  H52  1  0.19064626  0.15412255  0.74861193  1  0.047071  0  0.086233  0.089798  0  1.028573  0
H  H53  1  0.35138346  0.12204674  0.80480550  1  0.036014  0  0.100284  0.110233  0  1.013566  0
H  H54  1  0.89945648  0.88216815  0.22488946  1  0.446155  0  0.310707  0.249618  0  0.976031  0
H  H55  1  0.64614439  0.89882263  0.28701388  1  0.036442  0  0.108325  0.116844  0  0.972459  0
H  H56  1  0.79332406  0.86811617  0.34759181  1  0.049409  0  0.097484  0.104232  0  0.982057  0
H  H57  1  0.64460092  0.81421327  0.30778627  1  0.057613  0  0.092757  0.100738  0  1.030028  0
H  H58  1  0.87278698  0.17919827  0.36145114  1  0.434834  0  0.282506  0.238264  0  1.026647  0
H  H59  1  0.66234038  0.13249294  0.42831254  1  0.035739  0  0.101295  0.111379  0  0.976493  0
H  H60  1  0.50207768  0.13509698  0.36563859  1  0.035171  0  0.080696  0.088567  0  1.027963  0
H  H61  1  0.48270761  0.19513469  0.41931921  1  0.012462  0  0.095435  0.100629  0  0.999575  0
H  H62  1  0.32077025  0.84487470  0.64455247  1  0.399466  0  0.285852  0.238142  0  0.985373  0
H  H63  1  0.22750121  0.83390256  0.54582560  1  0.022946  0  0.100706  0.109765  0  0.974277  0
H  H64  1  0.09290507  0.76269215  0.56645170  1  0.0267  0  0.102241  0.113418  0  0.998405  0
H  H65  1  0.35756596  0.76060912  0.56720475  1  0.050234  0  0.080308  0.079706  0  1.031195  0
H  H66  1  0.41468434  0.42127538  0.53124308  1  0.616708  0  0.353617  0.433096  0  0.849266  0
H  H67  1  0.91212314  0.57632364  0.46341711  1  0.622344  0  0.351484  0.429674  0  0.856828  0
H  H68  1  0.34983457  0.08191955  0.97431370  1  0.61943  0  0.351215  0.429548  0  0.856395  0
H  H69  1  0.86304187  0.92145401  0.97970277  1  0.629808  0  0.352009  0.431173  0  0.853591  0
C  C70  1  0.41714924  0.58427058  0.57029690  1  1.670721  0  0.27428  0.707742  0  4.170218  0
C  C71  1  0.92062482  0.41498353  0.42893946  1  1.681288  0  0.275753  0.71544  0  4.161546  0
C  C72  1  0.41263713  0.57118377  0.41018472  1  1.556772  0  0.270716  0.663787  0  4.0615  0
C  C73  1  0.91281955  0.43006641  0.58895713  1  1.556626  0  0.269587  0.662163  0  4.071104  0
C  C74  1  0.73543976  0.13241665  0.82192997  1  -0.06233  0  -0.08173  -0.138292  0  3.926561  0
C  C75  1  0.20859595  0.86235974  0.17321895  1  -0.04733  0  -0.083782  -0.144469  0  3.949497  0
C  C76  1  0.86553242  0.13354544  0.86976481  1  -0.000855  0  -0.014896  -0.030793  0  4.01704  0
C  C77  1  0.36600653  0.87100563  0.13253992  1  0.015708  0  -0.016649  -0.034138  0  4.022919  0
C  C78  1  0.00434269  0.18308601  0.87300522  1  -0.019887  0  -0.087611  -0.143249  0  3.972846  0
C  C79  1  0.53360871  0.83088273  0.13627276  1  -0.012475  0  -0.086925  -0.141813  0  3.95631  0
C  C80  1  0.01106751  0.23310217  0.82833476  1  0.041232  0  -0.015476  -0.028189  0  4.080096  0
C  C81  1  0.54073925  0.78009863  0.18016003  1  -0.013752  0  -0.014385  -0.020147  0  4.061865  0
C  C82  1  0.87938837  0.23326323  0.77898338  1  0.023593  0  0.003209  0.008942  0  3.940741  0
C  C83  1  0.38344577  0.77111528  0.22304358  1  -0.013397  0  0.003521  0.016514  0  3.937172  0
C  C84  1  0.73886165  0.18144173  0.77609365  1  -0.024439  0  -0.002612  0.023587  0  3.993387  0
C  C85  1  0.21514109  0.81430079  0.21983748  1  -0.020139  0  -0.005891  0.01  0  3.99657  0
C  C86  1  0.15162282  0.28445138  0.82848327  1  0.363987  0  0.095581  0.24651  0  4.073912  0
C  C87  1  0.70173839  0.73474143  0.18407621  1  0.390485  0  0.095564  0.244919  0  4.075647  0
C  C88  1  0.16399342  0.33330587  0.78541589  1  0.083947  0  -0.108739  -0.271773  0  4.04234  0
C  C89  1  0.71372053  0.68470099  0.22586762  1  0.019837  0  -0.106684  -0.268726  0  4.043689  0
C  C90  1  0.03166556  0.33496748  0.73619322  1  -0.021657  0  -0.014939  0.00089  0  4.009457  0
C  C91  1  0.56085529  0.67581027  0.27021568  1  0.03053  0  -0.01263  0.006711  0  4.009373  0
C  C92  1  0.89259740  0.28344219  0.73292568  1  0.015434  0  -0.00474  0.007198  0  3.973781  0
C  C93  1  0.39575579  0.71982172  0.26792737  1  0.01737  0  -0.010549  -0.00791  0  3.992282  0
C  C94  1  0.76107702  0.28236242  0.68368917  1  0.051032  0  -0.032141  -0.044059  0  4.150352  0
C  C95  1  0.23668857  0.71196417  0.31013072  1  0.018319  0  -0.031341  -0.039352  0  4.160826  0
C  C96  1  0.62535026  0.22980826  0.68258413  1  0.40071  0  0.082215  0.127091  0  4.053838  0
C  C97  1  0.07473113  0.75671574  0.30670373  1  0.416068  0  0.06941  0.103018  0  4.039316  0
C  C98  1  0.60837179  0.17994556  0.72549884  1  0.449251  0  0.071564  0.046876  0  4.104621  0
C  C99  1  0.05572167  0.80743566  0.26418805  1  0.508443  0  0.086628  0.062233  0  4.143601  0
C  C100  1  0.03172954  0.38782162  0.69195050  1  0.461163  0  0.110833  0.175045  0  4.00542  0
C  C101  1  0.56905710  0.62390287  0.31502430  1  0.443338  0  0.103064  0.166856  0  3.987258  0
C  C102  1  0.90473102  0.38404919  0.64238560  1  0.011454  0  -0.027314  -0.150389  0  3.97071  0
C  C103  1  0.41042219  0.61796018  0.35709592  1  0.007653  0  -0.024135  -0.137325  0  3.95467  0
C  C104  1  0.77058956  0.33260042  0.63952647  1  -0.016115  0  -0.085791  -0.117485  0  3.979365  0
C  C105  1  0.24691112  0.66053883  0.35338140  1  0.016616  0  -0.092098  -0.132515  0  3.987954  0
C  C106  1  0.66090980  0.20449802  0.25524841  1  1.061324  0  0.203438  0.374682  0  3.78454  0
C  C107  1  0.16150495  0.80903448  0.74494443  1  1.10308  0  0.208068  0.386052  0  3.781386  0
C  C108  1  0.02618486  0.18771592  0.24587277  1  -0.048823  0  -0.160266  -0.267595  0  3.846995  0
C  C109  1  0.52596962  0.80836282  0.75010476  1  -0.067514  0  -0.16231  -0.271401  0  3.861151  0
C  C110  1  0.07787012  0.23920440  0.28940136  1  0.442453  0  0.023552  0.183812  0  3.788586  0
C  C111  1  0.55020183  0.75513390  0.70606573  1  0.434224  0  0.025373  0.179817  0  3.791655  0
C  C112  1  0.92636957  0.36893837  0.38270197  1  0.135369  0  -0.033342  -0.198418  0  3.923216  0
C  C113  1  0.40988972  0.63034873  0.61668984  1  0.109262  0  -0.027455  -0.203013  0  3.907826  0
C  C114  1  0.83779680  0.20736454  0.20993360  1  0.095318  0  -0.010963  -0.051749  0  3.910398  0
C  C115  1  0.33629680  0.79661739  0.78834922  1  0.099212  0  -0.012721  -0.05552  0  3.926864  0
C  C116  1  0.69824424  0.24565562  0.31254191  1  0.74998  0  0.178352  0.19982  0  3.806871  0
C  C117  1  0.17624266  0.76595656  0.68662234  1  0.737739  0  0.179866  0.209258  0  3.810126  0
C  C118  1  0.89830288  0.28659986  0.29605740  1  0.061261  0  0.002817  -0.074438  0  3.785324  0
C  C119  1  0.35647238  0.71574716  0.70068321  1  0.092139  0  0.003833  -0.073558  0  3.796019  0
C  C120  1  0.89776381  0.32652172  0.23297094  1  0.897621  0  0.199446  0.29557  0  3.773992  0
C  C121  1  0.33677778  0.67562721  0.76304603  1  0.863301  0  0.199141  0.295022  0  3.776986  0
C  C122  1  0.86374795  0.27872071  0.18039458  1  0.878495  0  0.199088  0.301332  0  3.784366  0
C  C123  1  0.33883692  0.72392102  0.81638815  1  0.898976  0  0.200684  0.303172  0  3.785943  0
C  C124  1  0.92389894  0.33102667  0.34304956  1  -0.394631  0  -0.014724  0.004867  0  4.07972  0
C  C125  1  0.38279573  0.67003824  0.65421637  1  -0.375816  0  -0.00852  0.017036  0  4.044999  0
C  C126  1  0.81580351  0.16189296  0.16341058  1  -0.520706  0  -0.023635  0.00072  0  4.054081  0
C  C127  1  0.33034191  0.84118518  0.83612764  1  0.064078  0  -0.021649  0.008804  0  4.054545  0
C  C128  1  0.82751859  0.12395481  0.12386967  1  0.283163  0  -0.038185  -0.19978  0  3.93147  0
C  C129  1  0.34374446  0.87768200  0.87658966  1  -0.320326  0  -0.041255  -0.204675  0  3.938527  0
C  C130  1  0.35555469  0.92252199  0.08351621  1  1.588228  0  0.272158  0.648546  0  4.085946  0
C  C131  1  0.85627230  0.08188834  0.91874006  1  1.569688  0  0.271205  0.654586  0  4.079917  0
C  C132  1  0.35150440  0.92200362  0.92414987  1  1.684817  0  0.2745  0.724344  0  4.156635  0
C  C133  1  0.84170069  0.07813490  0.07746155  1  1.694135  0  0.27707  0.718008  0  4.162625  0
C  C134  1  0.21055783  0.27060778  0.13263378  1  0.223584  0  -0.150816  -0.212995  0  3.965241  0
C  C135  1  0.69992137  0.71157745  0.85183708  1  0.236415  0  -0.150681  -0.210729  0  3.958627  0
C  C136  1  0.45565538  0.34574067  0.31068084  1  0.265973  0  -0.161991  -0.223903  0  3.981919  0
C  C137  1  0.95781390  0.67359950  0.64954613  1  0.273669  0  -0.16022  -0.216415  0  3.973017  0
C  C138  1  0.08181641  0.41754827  0.18144309  1  0.211174  0  -0.145146  -0.203427  0  3.940469  0
C  C139  1  0.46773600  0.57413519  0.81343559  1  0.240906  0  -0.144656  -0.201703  0  3.952391  0
C  C140  1  0.07650722  0.50815486  0.68609995  1  0.284033  0  -0.144753  -0.227987  0  3.956886  0
C  C141  1  0.68912807  0.51035380  0.31098100  1  0.304524  0  -0.14558  -0.22622  0  3.970856  0
C  C142  1  0.30889402  0.11792551  0.75835458  1  0.248665  0  -0.145084  -0.215534  0  3.950401  0
C  C143  1  0.73846982  0.85763368  0.30328036  1  0.32342  0  -0.135996  -0.209095  0  3.978181  0
C  C144  1  0.58827470  0.16493848  0.39506720  1  0.314557  0  -0.151882  -0.209775  0  4.005429  0
C  C145  1  0.22524900  0.79050982  0.57647957  1  0.292304  0  -0.150069  -0.201521  0  3.993659  0
N  N146  1  0.99867662  0.28617379  0.13083303  1  -1.061672  0  -0.479873  -0.384494  0  3.475518  0
N  N147  1  0.48448649  0.70905786  0.86085001  1  -1.057683  0  -0.478345  -0.384706  0  3.476983  0
N  N148  1  0.52454937  0.28124767  0.33149962  1  -1.044117  0  -0.481946  -0.357683  0  3.46438  0
N  N149  1  0.98840323  0.73485220  0.67835668  1  -1.108316  0  -0.496738  -0.38878  0  3.512019  0
N  N150  1  0.07163450  0.36386880  0.22703529  1  -1.131802  0  -0.478254  -0.377416  0  3.537766  0
N  N151  1  0.48300130  0.62640559  0.76673900  1  -1.1287  0  -0.473893  -0.366767  0  3.518163  0
N  N152  1  0.14536059  0.44171988  0.70043868  1  -1.173978  0  -0.444885  -0.271062  0  3.568884  0
N  N153  1  0.72675755  0.57995887  0.31557340  1  -1.128675  0  -0.453734  -0.293105  0  3.53526  0
N  N154  1  0.48185950  0.12705038  0.71831778  1  -1.115786  0  -0.464964  -0.31468  0  3.495732  0
N  N155  1  0.89962291  0.85042182  0.26062644  1  -1.220711  0  -0.446438  -0.270127  0  3.66205  0
N  N156  1  0.74398774  0.20433470  0.36522247  1  -1.088545  0  -0.495683  -0.404485  0  3.502311  0
N  N157  1  0.21140006  0.81279420  0.63692584  1  -1.04416  0  -0.497502  -0.401346  0  3.507146  0
O  O158  1  0.57849555  0.55620601  0.43410598  1  -1.265782  0  -0.232206  -0.596162  0  2.360607  0
O  O159  1  0.08186045  0.45014206  0.56983576  1  -1.260584  0  -0.233116  -0.591437  0  2.33845  0
O  O160  1  0.24972222  0.56941901  0.54929254  1  -1.232762  0  -0.225083  -0.577456  0  2.29754  0
O  O161  1  0.74841635  0.43481870  0.44404403  1  -1.231586  0  -0.228421  -0.581151  0  2.29069  0
O  O162  1  0.24437536  0.55120742  0.43005369  1  -1.264974  0  -0.237793  -0.600959  0  2.347115  0
O  O163  1  0.74787354  0.44362133  0.56389617  1  -1.266384  0  -0.236741  -0.604381  0  2.358985  0
O  O164  1  0.08676351  0.43114606  0.44965263  1  -1.231222  0  -0.230205  -0.582155  0  2.286097  0
O  O165  1  0.58785080  0.56366958  0.55545107  1  -1.224309  0  -0.225132  -0.567923  0  2.285274  0
O  O166  1  0.41488326  0.46096029  0.50591319  1  -1.419093  0  -0.447375  -0.986934  0  2.16928  0
O  O167  1  0.91388657  0.53951668  0.49230511  1  -1.425051  0  -0.447333  -0.983645  0  2.159353  0
O  O168  1  0.18436312  0.93991719  0.94504387  1  -1.23687  0  -0.23042  -0.592397  0  2.286622  0
O  O169  1  0.67935448  0.06155238  0.05482216  1  -1.236837  0  -0.223621  -0.572699  0  2.296473  0
O  O170  1  0.52068518  0.94111021  0.06085046  1  -1.26706  0  -0.232152  -0.588275  0  2.364789  0
O  O171  1  0.02041902  0.06610463  0.94328648  1  -1.263595  0  -0.239057  -0.608761  0  2.348552  0
O  O172  1  0.52328859  0.93841538  0.94069014  1  -1.235105  0  -0.231891  -0.589198  0  2.267833  0
O  O173  1  0.01548093  0.05920356  0.06337882  1  -1.230673  0  -0.2261  -0.573561  0  2.272275  0
O  O174  1  0.68568883  0.05902621  0.93286609  1  -1.257262  0  -0.236867  -0.599378  0  2.320689  0
O  O175  1  0.18468278  0.94284276  0.06725810  1  -1.254911  0  -0.232193  -0.583201  0  2.325758  0
O  O176  1  0.35238189  0.04026422  0.99665707  1  -1.423366  0  -0.447914  -0.988642  0  2.172496  0
O  O177  1  0.85478078  0.96122116  0.00114422  1  -1.433063  0  -0.448849  -0.989941  0  2.163651  0
F  F178  1  0.63595582  0.13879735  0.27233155  1  -0.626716  0  -0.114527  -0.189905  0  1.326154  0
F  F179  1  0.16221831  0.87529969  0.72835795  1  -0.633064  0  -0.119023  -0.19759  0  1.323113  0
F  F180  1  0.13322714  0.20769406  0.34438091  1  -0.627293  0  -0.118209  -0.174668  0  1.311599  0
F  F181  1  0.60731184  0.78383098  0.64941544  1  -0.627852  0  -0.113434  -0.171649  0  1.301477  0
F  F182  1  0.68051985  0.29466474  0.15384295  1  -0.606141  0  -0.123846  -0.200727  0  1.347372  0
F  F183  1  0.15980802  0.71695005  0.84878698  1  -0.608606  0  -0.119973  -0.196082  0  1.348485  0
F  F184  1  0.72909066  0.36930208  0.23118001  1  -0.607895  0  -0.12442  -0.203196  0  1.340613  0
F  F185  1  0.14169938  0.64736909  0.76566472  1  -0.595812  0  -0.129759  -0.207353  0  1.296575  0
F  F186  1  0.48616525  0.22253791  0.22822154  1  -0.629155  0  -0.087701  -0.163219  0  1.450505  0
F  F187  1  0.98369997  0.79931920  0.77379193  1  -0.629046  0  -0.092138  -0.169883  0  1.454634  0
F  F188  1  0.28151001  0.28342115  0.87464451  1  -0.634481  0  -0.109662  -0.151527  0  1.309945  0
F  F189  1  0.85036673  0.74250145  0.14255845  1  -0.644867  0  -0.103581  -0.145291  0  1.328464  0
F  F190  1  0.50322901  0.22906271  0.63421770  1  -0.633508  0  -0.107487  -0.142563  0  1.333082  0
F  F191  1  0.92813891  0.74682726  0.34928310  1  -0.637067  0  -0.102141  -0.129855  0  1.36859  0
