# generated using pymatgen
data_ZnH8C15S2NO4
_symmetry_space_group_name_H-M   'P 1'
_cell_length_a   13.93012380
_cell_length_b   14.18834978
_cell_length_c   14.18834308
_cell_angle_alpha   103.70331028
_cell_angle_beta   105.81140211
_cell_angle_gamma   105.81160394
_symmetry_Int_Tables_number   1
_chemical_formula_structural   ZnH8C15S2NO4
_chemical_formula_sum   'Zn4 H32 C60 S8 N4 O16'
_cell_volume   2445.05679873
_cell_formula_units_Z   4
loop_
 _symmetry_equiv_pos_site_id
 _symmetry_equiv_pos_as_xyz
  1  'x, y, z'
loop_
 _atom_site_type_symbol
 _atom_site_label
 _atom_site_symmetry_multiplicity
 _atom_site_fract_x
 _atom_site_fract_y
 _atom_site_fract_z
 _atom_site_occupancy
 _atom_site_pbe_bader_charge
 _atom_site_pbe_bader_spin_density
 _atom_site_pbe_cm5_charge
 _atom_site_pbe_ddec_charge
 _atom_site_pbe_ddec_spin_density
 _atom_site_pbe_ddec_sum_bond_order
 _atom_site_pbe_magmom
Zn  Zn0  1  0.36131749  0.37528923  0.66232590  1  1.292004  0  0.671989  0.831792  0  2.397754  0
Zn  Zn1  1  0.13868279  0.33767457  0.62471287  1  1.292933  0  0.671967  0.831737  0  2.39778  0
Zn  Zn2  1  0.63868290  0.62471218  0.33767340  1  1.292041  0  0.671958  0.831766  0  2.397776  0
Zn  Zn3  1  0.86131732  0.66232606  0.37528759  1  1.292894  0  0.671992  0.831792  0  2.397739  0
H  H4  1  0.65373492  0.40207402  0.50752865  1  0.118617  0  0.11046  0.124574  0  1.015308  0
H  H5  1  0.84626503  0.49247079  0.59792594  1  0.11867  0  0.110462  0.12454  0  1.015322  0
H  H6  1  0.34626536  0.59792507  0.49247219  1  0.118608  0  0.11047  0.124557  0  1.015264  0
H  H7  1  0.15373376  0.50752829  0.40207380  1  0.118625  0  0.110477  0.124584  0  1.015261  0
H  H8  1  0.48448123  0.41334492  0.02227847  1  0.10557  0  0.112398  0.130608  0  0.989011  0
H  H9  1  0.01551989  0.97772194  0.58665414  1  0.105592  0  0.112402  0.130582  0  0.989036  0
H  H10  1  0.51552101  0.58665339  0.97772202  1  0.105611  0  0.112385  0.130548  0  0.989039  0
H  H11  1  0.98448078  0.02228026  0.41334895  1  0.105625  0  0.112409  0.1306  0  0.989011  0
H  H12  1  0.48211573  0.41145800  0.52439193  1  0.144199  0  0.119561  0.095837  0  1.011549  0
H  H13  1  0.01788461  0.47560834  0.58854186  1  0.144181  0  0.119563  0.095803  0  1.011577  0
H  H14  1  0.51788427  0.58854031  0.47560795  1  0.14417  0  0.119558  0.095801  0  1.011566  0
H  H15  1  0.98211446  0.52439151  0.41145814  1  0.144179  0  0.119562  0.095787  0  1.011608  0
H  H16  1  0.47916442  0.73746008  0.70808388  1  0.089658  0  0.108537  0.121709  0  0.997927  0
H  H17  1  0.02083424  0.29191546  0.26254003  1  0.089678  0  0.10855  0.121752  0  0.997949  0
H  H18  1  0.52083390  0.26253977  0.29191592  1  0.089634  0  0.108529  0.121723  0  0.997931  0
H  H19  1  0.97916587  0.70808517  0.73745972  1  0.089664  0  0.10854  0.121748  0  0.997961  0
H  H20  1  0.44160248  0.90725824  0.69412863  1  0.092172  0  0.104174  0.123063  0  0.99568  0
H  H21  1  0.05839796  0.30587019  0.09274226  1  0.092185  0  0.104178  0.123044  0  0.995664  0
H  H22  1  0.55839762  0.09274240  0.30587182  1  0.092187  0  0.104184  0.123052  0  0.995651  0
H  H23  1  0.94160204  0.69412812  0.90725692  1  0.092195  0  0.104171  0.123043  0  0.995648  0
H  H24  1  0.71727648  0.32398333  0.78958201  1  0.077113  0  0.115487  0.122672  0  0.985798  0
H  H25  1  0.78272217  0.21041640  0.67601469  1  0.077136  0  0.115491  0.122718  0  0.985725  0
H  H26  1  0.28272278  0.67601498  0.21041767  1  0.077152  0  0.115488  0.12267  0  0.985785  0
H  H27  1  0.21727811  0.78958268  0.32398475  1  0.077139  0  0.115495  0.122713  0  0.985761  0
H  H28  1  0.44728287  0.39011118  0.18834087  1  0.139421  0  0.100949  0.127771  0  1.030567  0
H  H29  1  0.05271831  0.81165934  0.60988726  1  0.13689  0  0.10095  0.127747  0  1.030549  0
H  H30  1  0.55271788  0.60988713  0.81165922  1  0.136879  0  0.100942  0.127749  0  1.030558  0
H  H31  1  0.94728208  0.18834207  0.39011345  1  0.136874  0  0.100929  0.127711  0  1.03059  0
H  H32  1  0.54381403  0.34034945  0.79577341  1  0.128066  0  0.129953  0.106994  0  0.966926  0
H  H33  1  0.95618552  0.20422632  0.65965059  1  0.128075  0  0.129966  0.106995  0  0.966934  0
H  H34  1  0.45618607  0.65965118  0.20422564  1  0.128057  0  0.129963  0.106992  0  0.966915  0
H  H35  1  0.04381504  0.79577354  0.34034840  1  0.128076  0  0.129963  0.107011  0  0.966925  0
C  C36  1  0.31032850  0.66441378  0.67953431  1  -0.22132  0  -0.036298  -0.143773  0  4.010933  0
C  C37  1  0.18967029  0.32046422  0.33558604  1  -0.22141  0  -0.036316  -0.14372  0  4.01093  0
C  C38  1  0.68967058  0.33558607  0.32046569  1  -0.221449  0  -0.036307  -0.143758  0  4.010996  0
C  C39  1  0.81032953  0.67953564  0.66441416  1  -0.221339  0  -0.036288  -0.143693  0  4.010922  0
C  C40  1  0.30087118  0.37892712  0.84069072  1  1.584837  0  0.203252  0.596591  0  4.226658  0
C  C41  1  0.19912978  0.15931038  0.62107392  1  1.584839  0  0.203246  0.596566  0  4.226588  0
C  C42  1  0.69913088  0.62107275  0.15930938  1  1.584833  0  0.203214  0.596516  0  4.226745  0
C  C43  1  0.80086986  0.84069103  0.37892730  1  1.584885  0  0.203208  0.596543  0  4.226717  0
C  C44  1  0.69948003  0.36100953  0.64705360  1  -0.048878  0  0.017901  0.111655  0  3.970211  0
C  C45  1  0.80051857  0.35294513  0.63898902  1  -0.08659  0  0.01789  0.111547  0  3.970275  0
C  C46  1  0.30051922  0.63898877  0.35294608  1  -0.048955  0  0.01791  0.111614  0  3.970193  0
C  C47  1  0.19948096  0.64705395  0.36101092  1  -0.086506  0  0.017925  0.111681  0  3.970143  0
C  C48  1  0.29636618  0.55603152  0.67252549  1  1.596518  0  0.201238  0.589576  0  4.241369  0
C  C49  1  0.20363173  0.32747529  0.44396867  1  1.596526  0  0.201154  0.589342  0  4.241513  0
C  C50  1  0.70363243  0.44396912  0.32747598  1  1.596449  0  0.201222  0.589558  0  4.241389  0
C  C51  1  0.79636884  0.67252457  0.55603173  1  1.596448  0  0.201215  0.589518  0  4.241407  0
C  C52  1  0.27666607  0.35146008  0.10228226  1  -0.182796  0  -0.024075  -0.016469  0  4.081831  0
C  C53  1  0.22333507  0.89771906  0.64853932  1  -0.182626  0  -0.024083  -0.016518  0  4.081813  0
C  C54  1  0.72333468  0.64853823  0.89771712  1  -0.182574  0  -0.024088  -0.01651  0  4.081874  0
C  C55  1  0.77666560  0.10228313  0.35146165  1  -0.182577  0  -0.024071  -0.016444  0  4.081788  0
C  C56  1  0.31377731  0.37488912  0.94606441  1  -0.20571  0  -0.029996  -0.126844  0  3.988335  0
C  C57  1  0.18622375  0.05393640  0.62511052  1  -0.205619  0  -0.030005  -0.126888  0  3.988351  0
C  C58  1  0.68622522  0.62510997  0.05393564  1  -0.205631  0  -0.02997  -0.126831  0  3.98838  0
C  C59  1  0.81377514  0.94606501  0.37489120  1  -0.205649  0  -0.030008  -0.126885  0  3.988352  0
C  C60  1  0.27384321  0.82401847  0.66582285  1  -0.203282  0  -0.016748  0.002367  0  4.06596  0
C  C61  1  0.22615646  0.33417545  0.17598197  1  -0.203214  0  -0.016794  0.002246  0  4.065967  0
C  C62  1  0.72615643  0.17598293  0.33417696  1  -0.203354  0  -0.016785  0.002228  0  4.065986  0
C  C63  1  0.77384354  0.66582285  0.82401721  1  -0.203353  0  -0.016763  0.002282  0  4.066033  0
C  C64  1  0.63305490  0.38797002  0.57290553  1  0.033989  0  -0.0762  -0.167615  0  3.935832  0
C  C65  1  0.86694402  0.42709337  0.61202897  1  0.033964  0  -0.076194  -0.167488  0  3.935759  0
C  C66  1  0.36694435  0.61202828  0.42709415  1  0.033982  0  -0.076204  -0.167489  0  3.935732  0
C  C67  1  0.13305552  0.57290571  0.38797097  1  0.033974  0  -0.076202  -0.167539  0  3.935709  0
C  C68  1  0.40534543  0.39132795  0.02716586  1  0.016301  0  -0.091645  -0.084592  0  3.991566  0
C  C69  1  0.09465574  0.97283443  0.60867116  1  0.01621  0  -0.091659  -0.084577  0  3.991608  0
C  C70  1  0.59465653  0.60866958  0.97283367  1  0.016177  0  -0.091658  -0.08456  0  3.991655  0
C  C71  1  0.90534465  0.02716699  0.39133026  1  0.016144  0  -0.091628  -0.084542  0  3.99151  0
C  C72  1  0.53792920  0.39384684  0.58175370  1  0.437169  0  0.054991  0.101748  0  3.931476  0
C  C73  1  0.96207025  0.41824606  0.60615334  1  0.437163  0  0.05503  0.101781  0  3.931516  0
C  C74  1  0.46207033  0.60615224  0.41824553  1  0.43719  0  0.055017  0.101736  0  3.931509  0
C  C75  1  0.03792854  0.58175302  0.39384640  1  0.437178  0  0.054996  0.101725  0  3.931533  0
C  C76  1  0.40133436  0.74524415  0.69403990  1  -0.020715  0  -0.096532  -0.096819  0  4.027727  0
C  C77  1  0.09866440  0.30595867  0.25475595  1  -0.020788  0  -0.096523  -0.096926  0  4.027786  0
C  C78  1  0.59866500  0.25475648  0.30596036  1  -0.020709  0  -0.096547  -0.096927  0  4.027782  0
C  C79  1  0.90133617  0.69404119  0.74524375  1  -0.020802  0  -0.09655  -0.096994  0  4.027825  0
C  C80  1  0.38099578  0.83562402  0.68642220  1  0.016491  0  -0.112999  -0.165099  0  4.010472  0
C  C81  1  0.11900388  0.31357652  0.16437659  1  0.016386  0  -0.112996  -0.164975  0  4.010419  0
C  C82  1  0.61900386  0.16437738  0.31357831  1  0.016513  0  -0.112973  -0.164963  0  4.010449  0
C  C83  1  0.88099612  0.68642178  0.83562259  1  0.016517  0  -0.112959  -0.164927  0  4.0104  0
C  C84  1  0.66730198  0.34293887  0.72872096  1  0.046146  0  -0.076243  -0.174903  0  3.938953  0
C  C85  1  0.83269751  0.27127806  0.65706035  1  0.046108  0  -0.076243  -0.17493  0  3.938934  0
C  C86  1  0.33269784  0.65706099  0.27127924  1  0.046116  0  -0.076237  -0.174904  0  3.938892  0
C  C87  1  0.16730278  0.72872102  0.34293909  1  0.046109  0  -0.076246  -0.174952  0  3.938879  0
C  C88  1  0.38477778  0.37840768  0.11609062  1  -0.014372  0  -0.109591  -0.154697  0  3.977983  0
C  C89  1  0.11522314  0.88391029  0.62159150  1  -0.012021  0  -0.109575  -0.154626  0  3.977861  0
C  C90  1  0.61522343  0.62158986  0.88390941  1  -0.011984  0  -0.109568  -0.154634  0  3.97791  0
C  C91  1  0.88477725  0.11609113  0.37841062  1  -0.01199  0  -0.109576  -0.15463  0  3.977901  0
C  C92  1  0.57176667  0.35217226  0.73322947  1  0.454785  0  0.061064  0.109471  0  3.916946  0
C  C93  1  0.92823318  0.26677064  0.64782790  1  0.454773  0  0.061108  0.109575  0  3.917034  0
C  C94  1  0.42823372  0.64782915  0.26677054  1  0.454774  0  0.061076  0.109539  0  3.916958  0
C  C95  1  0.07176739  0.73322921  0.35217180  1  0.454789  0  0.061087  0.10949  0  3.91694  0
S  S96  1  0.20172850  0.34314134  0.97921765  1  0.227889  0  0.070168  0.106841  0  2.828844  0
S  S97  1  0.29827267  0.02078442  0.65685910  1  0.227888  0  0.070192  0.106885  0  2.828832  0
S  S98  1  0.79827253  0.65685775  0.02078199  1  0.227837  0  0.070146  0.106813  0  2.82885  0
S  S99  1  0.70172754  0.97921855  0.34314193  1  0.227887  0  0.070158  0.106812  0  2.828866  0
S  S100  1  0.19998878  0.70111854  0.65858320  1  0.234555  0  0.090409  0.13015  0  2.881426  0
S  S101  1  0.30001058  0.34141668  0.29888311  1  0.234624  0  0.090408  0.130169  0  2.881386  0
S  S102  1  0.80001040  0.29888364  0.34141737  1  0.234624  0  0.090408  0.130198  0  2.881445  0
S  S103  1  0.69998970  0.65858240  0.70111633  1  0.234635  0  0.090383  0.130157  0  2.881415  0
N  N104  1  0.50787244  0.37641022  0.66040215  1  -1.240154  0  -0.321622  -0.206961  0  3.527734  0
N  N105  1  0.99212748  0.33959866  0.62359094  1  -1.240142  0  -0.321685  -0.207086  0  3.527946  0
N  N106  1  0.49212692  0.62359041  0.33959811  1  -1.240133  0  -0.32168  -0.207073  0  3.527914  0
N  N107  1  0.00787234  0.66040120  0.37640926  1  -1.240135  0  -0.321694  -0.207035  0  3.527898  0
O  O108  1  0.38398442  0.39709726  0.81601760  1  -1.154935  0  -0.316828  -0.536513  0  2.309351  0
O  O109  1  0.11601569  0.18398268  0.60290350  1  -1.154927  0  -0.316823  -0.536507  0  2.309361  0
O  O110  1  0.61601615  0.60290260  0.18398209  1  -1.154872  0  -0.316789  -0.536447  0  2.30935  0
O  O111  1  0.88398396  0.81601872  0.39709701  1  -1.154927  0  -0.3168  -0.53646  0  2.309374  0
O  O112  1  0.37842942  0.52995407  0.68396067  1  -1.168981  0  -0.315716  -0.535773  0  2.29932  0
O  O113  1  0.12156644  0.31603681  0.47004371  1  -1.169005  0  -0.3156  -0.535566  0  2.299213  0
O  O114  1  0.62156656  0.47004344  0.31603654  1  -1.168909  0  -0.315653  -0.535708  0  2.299256  0
O  O115  1  0.87843292  0.68396382  0.52995655  1  -1.169005  0  -0.315653  -0.535687  0  2.299263  0
O  O116  1  0.20619259  0.36303483  0.78237498  1  -1.17518  0  -0.326032  -0.561696  0  2.338994  0
O  O117  1  0.29380807  0.21762671  0.63696535  1  -1.175198  0  -0.326055  -0.561695  0  2.338931  0
O  O118  1  0.79380769  0.63696425  0.21762517  1  -1.175221  0  -0.32604  -0.561678  0  2.339007  0
O  O119  1  0.70619157  0.78237469  0.36303446  1  -1.17521  0  -0.326033  -0.561724  0  2.339019  0
O  O120  1  0.20107524  0.49601060  0.65242235  1  -1.180772  0  -0.322008  -0.561625  0  2.369463  0
O  O121  1  0.29892227  0.34757950  0.50399066  1  -1.180677  0  -0.322001  -0.561572  0  2.369457  0
O  O122  1  0.79892216  0.50399080  0.34757968  1  -1.180711  0  -0.322007  -0.561632  0  2.369429  0
O  O123  1  0.70107783  0.65242113  0.49600909  1  -1.180687  0  -0.322005  -0.561622  0  2.369411  0
