# generated using pymatgen
data_FeH6C10(NO2)4
_symmetry_space_group_name_H-M   'P 1'
_cell_length_a   6.96976977
_cell_length_b   11.13648558
_cell_length_c   11.56319547
_cell_angle_alpha   89.99988907
_cell_angle_beta   89.99963857
_cell_angle_gamma   100.63707980
_symmetry_Int_Tables_number   1
_chemical_formula_structural   FeH6C10(NO2)4
_chemical_formula_sum   'Fe2 H12 C20 N8 O16'
_cell_volume   882.09776044
_cell_formula_units_Z   2
loop_
 _symmetry_equiv_pos_site_id
 _symmetry_equiv_pos_as_xyz
  1  'x, y, z'
loop_
 _atom_site_type_symbol
 _atom_site_label
 _atom_site_symmetry_multiplicity
 _atom_site_fract_x
 _atom_site_fract_y
 _atom_site_fract_z
 _atom_site_occupancy
 _atom_site_hle17_ddec_charge
 _atom_site_hle17_ddec_spin_density
 _atom_site_hle17_ddec_sum_bond_order
 _atom_site_hle17_magmom
 _atom_site_hse06_10hf_ddec_charge
 _atom_site_hse06_10hf_ddec_spin_density
 _atom_site_hse06_10hf_ddec_sum_bond_order
 _atom_site_hse06_10hf_magmom
 _atom_site_hse06_ddec_charge
 _atom_site_hse06_ddec_spin_density
 _atom_site_hse06_ddec_sum_bond_order
 _atom_site_hse06_magmom
 _atom_site_pbe_cm5_charge
 _atom_site_pbe_ddec_charge
 _atom_site_pbe_ddec_spin_density
 _atom_site_pbe_ddec_sum_bond_order
 _atom_site_pbe_magmom
Fe  Fe0  1  0.99999978  0.99999909  0.00000000  1  0.705449  0.00804  2.57511  0.013  0.668779  0.005288  3.052355  0.009  0.738851  0.003183  2.975929  0.006  0.643988  0.622628  -0.006753  3.102683  -0.01
Fe  Fe1  1  0.49999838  0.49999948  0.50000065  1  0.705354  0.008047  2.574907  0.013  0.668835  0.005295  3.052087  0.009  0.738738  0.00318  2.975711  0.006  0.643947  0.622502  -0.006755  3.102478  -0.01
H  H2  1  0.50209875  0.19420968  0.81356304  1  0.391383  -2.7e-05  0.909728  0.0  0.359199  -3e-05  0.990427  0.0  0.372029  -2.5e-05  0.97413  0.0  0.296368  0.350548  3e-05  0.998404  0.0
H  H3  1  0.00209247  0.69420223  0.68644194  1  0.391353  -2.6e-05  0.909813  0.0  0.359197  -3e-05  0.990483  0.0  0.372025  -2.5e-05  0.974147  0.0  0.296391  0.350561  3e-05  0.998433  0.0
H  H4  1  0.49790279  0.80579119  0.18643652  1  0.391402  -2.5e-05  0.909697  0.0  0.359224  -3e-05  0.990392  0.0  0.372053  -2.5e-05  0.974095  0.0  0.296371  0.350573  3e-05  0.998368  0.0
H  H5  1  0.99790762  0.30579861  0.31355676  1  0.39135  -2.7e-05  0.909823  0.0  0.359207  -3e-05  0.990474  0.0  0.372036  -2.5e-05  0.974133  0.0  0.296407  0.350572  3e-05  0.998424  0.0
H  H6  1  0.90962475  0.28467673  0.73285018  1  0.328833  -4.7e-05  0.902127  0.0  0.301307  -7.2e-05  0.973827  0.0  0.311849  -6.4e-05  0.964465  0.0  0.314119  0.293526  7.3e-05  0.980894  0.0
H  H7  1  0.40962931  0.78467651  0.76715072  1  0.328846  -4.8e-05  0.902141  0.0  0.301309  -7.2e-05  0.973841  0.0  0.311847  -6.4e-05  0.964483  0.0  0.314111  0.293527  7.3e-05  0.980912  0.0
H  H8  1  0.09037678  0.71532414  0.26715024  1  0.328833  -4.5e-05  0.902149  0.0  0.301296  -7.2e-05  0.973852  0.0  0.311836  -6.4e-05  0.964492  0.0  0.314104  0.293518  7.3e-05  0.98092  0.0
H  H9  1  0.59037367  0.21532439  0.23284970  1  0.328893  -5e-05  0.902071  0.0  0.301359  -7.2e-05  0.973765  0.0  0.311899  -6.3e-05  0.964405  0.0  0.314129  0.293579  7.3e-05  0.980832  0.0
H  H10  1  0.00796662  0.44458131  0.58110450  1  0.114869  -2.5e-05  0.945216  0.0  0.119064  -1.4e-05  1.013167  0.0  0.122575  -1e-05  1.007908  0.0  0.145596  0.116206  1.8e-05  1.017338  0.0
H  H11  1  0.50796574  0.94458561  0.91889047  1  0.114881  -2.7e-05  0.945164  0.0  0.119063  -1.4e-05  1.013132  0.0  0.122577  -1e-05  1.007868  0.0  0.145563  0.116203  1.8e-05  1.017302  0.0
H  H12  1  0.99203325  0.55541861  0.41889506  1  0.114906  -2e-05  0.945178  0.0  0.119071  -1.4e-05  1.013159  0.0  0.122582  -1e-05  1.007901  0.0  0.1456  0.116215  1.8e-05  1.017329  0.0
H  H13  1  0.49203246  0.05541338  0.08110995  1  0.114925  -2.4e-05  0.945126  0.0  0.119089  -1.4e-05  1.013107  0.0  0.122601  -1e-05  1.007845  0.0  0.145577  0.11623  1.8e-05  1.017275  0.0
C  C14  1  0.11079999  0.39748476  0.62369988  1  0.278102  -0.00016  3.542198  0.0  0.209377  -0.000141  3.827998  0.0  0.228399  -0.000128  3.834286  0.0  0.172971  0.19657  0.000177  3.824268  0.0
C  C15  1  0.61080066  0.89748741  0.87629573  1  0.278205  -0.000153  3.541972  0.0  0.209493  -0.00014  3.827738  0.0  0.228513  -0.000124  3.834029  0.0  0.173074  0.19669  0.000177  3.824001  0.0
C  C16  1  0.88919776  0.60251240  0.37629969  1  0.27808  -0.000162  3.542188  0.0  0.209365  -0.000141  3.827974  0.0  0.228388  -0.000129  3.83426  0.0  0.172979  0.196559  0.000177  3.824245  0.0
C  C17  1  0.38919754  0.10251158  0.12370383  1  0.278125  -0.000158  3.541992  0.0  0.209441  -0.000139  3.82775  0.0  0.22846  -0.000121  3.834041  0.0  0.17303  0.196637  0.000177  3.824014  0.0
C  C18  1  0.21677019  0.26966877  0.74427549  1  -0.010729  4.2e-05  3.758779  0.0  -0.025835  -1.1e-05  4.015706  0.0  -0.029873  4.3e-05  4.033271  0.0  0.087044  -0.0233  4.2e-05  4.00514  0.0
C  C19  1  0.71676943  0.76966542  0.75572866  1  -0.010638  4.3e-05  3.758757  0.0  -0.0257  -1.2e-05  4.015702  0.0  -0.029725  3.9e-05  4.033259  0.0  0.087087  -0.023174  4.2e-05  4.005135  0.0
C  C20  1  0.78322846  0.73033204  0.25572407  1  -0.010695  2.9e-05  3.758737  0.0  -0.025858  -1.3e-05  4.015729  0.0  -0.029896  4.6e-05  4.033291  0.0  0.087001  -0.023323  4.2e-05  4.005162  0.0
C  C21  1  0.28323066  0.23033542  0.24427004  1  -0.010577  4.7e-05  3.758689  0.0  -0.025627  -1.6e-05  4.015643  0.0  -0.029652  4.4e-05  4.033204  0.0  0.087116  -0.023101  4.2e-05  4.005076  0.0
C  C22  1  0.37120970  0.33123150  0.67814900  1  -0.010902  -0.000215  3.762787  0.0  -0.021182  9.5e-05  4.025546  0.0  -0.018627  0.000154  4.043691  0.0  0.078396  -0.024265  -7.1e-05  4.014972  0.0
C  C23  1  0.87121086  0.83123342  0.82185281  1  -0.011146  -0.000222  3.762918  0.0  -0.021415  9.7e-05  4.025641  0.0  -0.01888  0.00015  4.043814  0.0  0.0783  -0.024492  -7.1e-05  4.015065  0.0
C  C24  1  0.62879183  0.66876937  0.32185143  1  -0.010931  -0.000226  3.762708  0.0  -0.021264  9.4e-05  4.025593  0.0  -0.018703  0.000154  4.043727  0.0  0.078367  -0.024344  -7.1e-05  4.015019  0.0
C  C25  1  0.12878756  0.16876648  0.17814675  1  -0.011104  -0.000213  3.762911  0.0  -0.021413  9.3e-05  4.025683  0.0  -0.018878  0.000147  4.043858  0.0  0.078297  -0.02449  -7.1e-05  4.015106  0.0
C  C26  1  0.21460661  0.17722897  0.83357356  1  0.624066  0.001727  3.845333  0.003  0.577987  0.001449  4.147639  0.003  0.618085  0.001602  4.13535  0.003  0.232457  0.549123  -0.001176  4.156693  -0.002
C  C27  1  0.71460125  0.67722581  0.66642904  1  0.624306  0.001745  3.844838  0.003  0.578058  0.001447  4.147391  0.003  0.61815  0.0016  4.135099  0.003  0.232511  0.549206  -0.001176  4.156441  -0.002
C  C28  1  0.78539303  0.82277004  0.16642600  1  0.624031  0.001735  3.845415  0.003  0.577991  0.001449  4.147688  0.003  0.618089  0.001602  4.135397  0.003  0.232466  0.549126  -0.001176  4.156741  -0.002
C  C29  1  0.28540006  0.32277414  0.33357139  1  0.624223  0.001734  3.844777  0.003  0.577976  0.001448  4.147339  0.003  0.618067  0.001599  4.13505  0.003  0.232496  0.549125  -0.001176  4.15639  -0.002
C  C30  1  0.57953090  0.32641661  0.67096034  1  0.62187  0.000171  3.909589  0.0  0.571207  0.000484  4.215358  0.0  0.607618  0.000486  4.206834  0.0  0.215236  0.545221  -0.000408  4.220825  0.0
C  C31  1  0.07953397  0.82641343  0.82904068  1  0.621945  0.000181  3.909537  0.0  0.571347  0.000483  4.215201  0.0  0.607766  0.00049  4.206685  0.0  0.215348  0.545358  -0.000408  4.220663  0.0
C  C32  1  0.42046852  0.67358149  0.32903922  1  0.622018  0.000194  3.909425  0.0  0.57132  0.000486  4.215228  0.0  0.60773  0.000494  4.206702  0.0  0.215303  0.545335  -0.000408  4.220696  0.0
C  C33  1  0.92046756  0.17358744  0.17095888  1  0.621931  0.000202  3.909478  0.0  0.57135  0.000489  4.215137  0.0  0.60777  0.000484  4.206617  0.0  0.215345  0.545361  -0.000408  4.2206  0.0
N  N34  1  0.30224924  0.40992809  0.60351655  1  -0.302998  -0.000132  3.314758  0.0  -0.2673  -3.2e-05  3.622586  0.0  -0.292997  -4e-06  3.635438  0.0  -0.356843  -0.250444  0.000103  3.613885  0.0
N  N35  1  0.80225475  0.90992805  0.89648360  1  -0.302962  -0.000132  3.31471  0.0  -0.267283  -3.3e-05  3.622529  0.0  -0.293001  -1e-06  3.635415  0.0  -0.356852  -0.250456  0.000104  3.613843  0.0
N  N36  1  0.69775351  0.59007189  0.39648301  1  -0.302948  -0.000132  3.314639  0.0  -0.267251  -3e-05  3.622481  0.0  -0.292949  -1e-06  3.63533  0.0  -0.356844  -0.250396  0.000103  3.61378  0.0
N  N37  1  0.19774534  0.09007279  0.10351683  1  -0.302959  -0.000135  3.314728  0.0  -0.267272  -2.9e-05  3.622546  0.0  -0.292989  -1e-06  3.635431  0.0  -0.356842  -0.250444  0.000103  3.613859  0.0
N  N38  1  0.05503481  0.31346537  0.70743555  1  -0.272275  -4.4e-05  3.380634  0.0  -0.209751  -0.000123  3.618505  0.0  -0.224514  -0.000129  3.629192  0.0  -0.352616  -0.20011  0.000139  3.611876  0.0
N  N39  1  0.55503401  0.81346372  0.79256472  1  -0.272404  -4.4e-05  3.38076  0.0  -0.209835  -0.000124  3.618575  0.0  -0.224602  -0.00013  3.62926  0.0  -0.352644  -0.200196  0.000139  3.611943  0.0
N  N40  1  0.94496628  0.68653367  0.29256574  1  -0.272307  -3.5e-05  3.380582  0.0  -0.209707  -0.000122  3.618398  0.0  -0.224472  -0.00013  3.629087  0.0  -0.352553  -0.200068  0.000139  3.611766  0.0
N  N41  1  0.44496541  0.18653438  0.20743398  1  -0.272431  -4.4e-05  3.380721  0.0  -0.20987  -0.000122  3.61853  0.0  -0.224636  -0.00013  3.629214  0.0  -0.352629  -0.200231  0.000139  3.611897  0.0
O  O42  1  0.05433275  0.13084111  0.87955597  1  -0.484021  -0.006399  2.129461  -0.009  -0.454576  -0.004643  2.391773  -0.006  -0.487125  -0.003917  2.378368  -0.006  -0.271808  -0.431182  0.004798  2.399891  0.006
O  O43  1  0.55433510  0.63084371  0.62045157  1  -0.484044  -0.006402  2.129458  -0.009  -0.454572  -0.004642  2.391874  -0.006  -0.487096  -0.003914  2.378459  -0.006  -0.271794  -0.431159  0.004799  2.39999  0.006
O  O44  1  0.94566689  0.86915790  0.12044446  1  -0.484018  -0.006398  2.129509  -0.009  -0.454572  -0.004641  2.391799  -0.006  -0.487121  -0.003915  2.378395  -0.006  -0.271817  -0.431177  0.004798  2.399919  0.006
O  O45  1  0.44566621  0.36915625  0.37954799  1  -0.484031  -0.006399  2.129478  -0.009  -0.454562  -0.004638  2.391891  -0.006  -0.487086  -0.003911  2.378477  -0.006  -0.271814  -0.431148  0.004798  2.400009  0.006
O  O46  1  0.38125135  0.14630350  0.86231538  1  -0.525117  -0.000562  2.112637  -0.001  -0.477552  -0.000514  2.331127  -0.001  -0.500165  -0.000459  2.314116  -0.001  -0.306555  -0.46258  0.000531  2.341207  0.001
O  O47  1  0.88124524  0.64629588  0.63769107  1  -0.525234  -0.000581  2.11223  -0.001  -0.47767  -0.000513  2.330818  -0.001  -0.500283  -0.000464  2.313782  -0.001  -0.306664  -0.462703  0.000532  2.340882  0.001
O  O48  1  0.61875019  0.85369737  0.13768591  1  -0.525117  -0.000571  2.112608  -0.001  -0.477565  -0.000516  2.331084  -0.001  -0.500178  -0.000463  2.314071  -0.001  -0.306553  -0.462594  0.000531  2.341162  0.001
O  O49  1  0.11875507  0.35370588  0.36230763  1  -0.525206  -0.00057  2.112143  -0.001  -0.477657  -0.000518  2.33075  -0.001  -0.500272  -0.000464  2.313711  -0.001  -0.306661  -0.462689  0.000532  2.340812  0.001
O  O50  1  0.67493749  0.39166655  0.59217568  1  -0.518939  0.001476  2.002621  0.002  -0.482399  0.000538  2.249571  0.001  -0.518171  0.00045  2.240543  0.001  -0.273204  -0.45445  -0.000621  2.253627  -0.001
O  O51  1  0.17493878  0.89167762  0.90782319  1  -0.518936  0.001487  2.002642  0.002  -0.482409  0.00054  2.249568  0.001  -0.518207  0.000457  2.240553  0.001  -0.273237  -0.454476  -0.000622  2.253622  -0.001
O  O52  1  0.32506238  0.60833337  0.40782561  1  -0.519119  0.001475  2.002681  0.002  -0.48245  0.000539  2.249551  0.001  -0.518222  0.000452  2.240523  0.001  -0.273228  -0.4545  -0.000621  2.253608  -0.001
O  O53  1  0.82506108  0.10832230  0.09217637  1  -0.518935  0.001469  2.002576  0.002  -0.482413  0.00054  2.249499  0.001  -0.518209  0.000456  2.240478  0.001  -0.273238  -0.454479  -0.000622  2.253551  -0.001
O  O54  1  0.65481721  0.25933732  0.74213179  1  -0.586838  0.000169  1.991405  0.0  -0.533948  0.000367  2.199011  0.0  -0.55846  0.00041  2.186112  0.001  -0.303145  -0.516134  -0.000259  2.206529  0.0
O  O55  1  0.15481689  0.75933430  0.75786912  1  -0.586866  0.000157  1.991512  0.0  -0.533989  0.000368  2.199077  0.0  -0.558503  0.000401  2.186167  0.001  -0.303185  -0.51619  -0.000259  2.20659  0.0
O  O56  1  0.34518288  0.74066352  0.25786950  1  -0.586878  0.000155  1.991322  0.0  -0.534004  0.000366  2.198962  0.0  -0.558517  0.0004  2.186063  0.001  -0.303174  -0.516192  -0.000259  2.206483  0.0
O  O57  1  0.84518487  0.24066748  0.24212958  1  -0.586878  0.000153  1.991529  0.0  -0.534009  0.000364  2.199088  0.0  -0.558523  0.000406  2.186174  0.001  -0.303193  -0.516211  -0.000259  2.206601  0.0
