# generated using pymatgen
data_AlH7C13O6F
_symmetry_space_group_name_H-M   'P 1'
_cell_length_a   6.61317031
_cell_length_b   11.18925735
_cell_length_c   15.22471836
_cell_angle_alpha   81.20944661
_cell_angle_beta   79.63333609
_cell_angle_gamma   71.60889858
_symmetry_Int_Tables_number   1
_chemical_formula_structural   AlH7C13O6F
_chemical_formula_sum   'Al2 H14 C26 O12 F2'
_cell_volume   1046.00295098
_cell_formula_units_Z   2
loop_
 _symmetry_equiv_pos_site_id
 _symmetry_equiv_pos_as_xyz
  1  'x, y, z'
loop_
 _atom_site_type_symbol
 _atom_site_label
 _atom_site_symmetry_multiplicity
 _atom_site_fract_x
 _atom_site_fract_y
 _atom_site_fract_z
 _atom_site_occupancy
 _atom_site_pbe_bader_charge
 _atom_site_pbe_bader_spin_density
 _atom_site_pbe_cm5_charge
 _atom_site_pbe_ddec_charge
 _atom_site_pbe_ddec_spin_density
 _atom_site_pbe_ddec_sum_bond_order
 _atom_site_pbe_magmom
Al  Al0  1  0.49665134  0.49522165  0.51067485  1  2.5052  0  0.398651  1.644272  0  2.583438  0
Al  Al1  1  0.99830636  0.49478561  0.50889749  1  2.505445  0  0.400394  1.642162  0  2.576705  0
H  H2  1  0.23145920  0.42676685  0.62054232  1  0.609124  0  0.35188  0.432333  0  0.855409  0
H  H3  1  0.70419410  0.63360379  0.43144778  1  0.617429  0  0.352517  0.432025  0  0.856826  0
H  H4  1  0.87691000  0.41596158  0.95762608  1  0.080991  0  0.110947  0.131625  0  1.002718  0
H  H5  1  0.13263961  0.53072044  0.06371981  1  0.081833  0  0.107068  0.124686  0  1.019721  0
H  H6  1  0.71190680  0.44852414  0.25029390  1  0.131305  0  0.112352  0.122713  0  1.009053  0
H  H7  1  0.80543853  0.45935337  0.08621216  1  0.049755  0  0.099992  0.099747  0  1.030288  0
H  H8  1  0.28900302  0.58442582  0.77041026  1  0.120451  0  0.115024  0.121211  0  0.986413  0
H  H9  1  0.19978001  0.58771227  0.93399071  1  0.08098  0  0.104223  0.107013  0  1.008938  0
H  H10  1  0.23329650  0.24014842  0.38166927  1  0.089047  0  0.100895  0.106604  0  1.049463  0
H  H11  1  0.56440331  0.13276621  0.28745101  1  0.043513  0  0.095378  0.091685  0  1.00402  0
H  H12  1  0.42857043  0.77792117  0.36764095  1  0.071367  0  0.098476  0.099462  0  1.04385  0
H  H13  1  0.66273347  0.89846118  0.27981997  1  0.058311  0  0.095998  0.09207  0  0.999652  0
H  H14  1  0.76584345  0.78527888  0.55248374  1  0.660558  0  0.315329  0.355552  0  0.960013  0
H  H15  1  0.56836563  0.21139328  0.55581761  1  0.647357  0  0.317697  0.359783  0  0.95889  0
C  C16  1  0.87906655  0.26827359  0.50183488  1  1.511559  0  0.268945  0.660456  0  4.045861  0
C  C17  1  0.67013308  0.50265497  0.67096142  1  1.576409  0  0.269878  0.665677  0  4.09091  0
C  C18  1  0.12460486  0.72768587  0.49485589  1  1.476588  0  0.263156  0.656479  0  4.066513  0
C  C19  1  0.32833543  0.48676323  0.35010410  1  1.573376  0  0.26895  0.654222  0  4.105439  0
C  C20  1  0.62895138  0.50417385  0.77024513  1  0.098787  0  -0.02018  -0.160245  0  3.957453  0
C  C21  1  0.37362498  0.48724401  0.25071904  1  0.062656  0  -0.02094  -0.162469  0  3.96232  0
C  C22  1  0.78946988  0.46014759  0.82640884  1  0.395183  0  0.112283  0.295149  0  4.03478  0
C  C23  1  0.74301477  0.45672839  0.91916038  1  0.019684  0  -0.09923  -0.26453  0  3.967926  0
C  C24  1  0.21581956  0.51129210  0.19450448  1  0.390219  0  0.112968  0.29509  0  4.03454  0
C  C25  1  0.26493927  0.51383357  0.10189036  1  0.042452  0  -0.100298  -0.266092  0  3.972986  0
C  C26  1  0.58692583  0.46670511  0.20801802  1  -0.018837  0  -0.072629  -0.054214  0  3.973355  0
C  C27  1  0.63830420  0.47190598  0.11540181  1  0.021451  0  -0.094417  -0.148232  0  3.979114  0
C  C28  1  0.41611227  0.54910897  0.81275358  1  0.013326  0  -0.071026  -0.05011  0  3.979754  0
C  C29  1  0.36710624  0.54909158  0.90516549  1  -0.067987  0  -0.092868  -0.148981  0  3.979218  0
C  C30  1  0.52953241  0.50090615  0.96090082  1  -0.025603  0  0.004  0.106473  0  3.987757  0
C  C31  1  0.47812836  0.49541516  0.05981710  1  -0.034638  0  0.004631  0.107324  0  3.98638  0
C  C32  1  0.93796631  0.13463923  0.48480856  1  0.062675  0  -0.030631  -0.239086  0  3.945771  0
C  C33  1  0.14069165  0.07126964  0.43339412  1  -0.019611  0  -0.004402  0.073519  0  3.957085  0
C  C34  1  0.79023107  0.06731325  0.52137212  1  0.606909  0  0.101064  0.229086  0  4.032622  0
C  C35  1  0.27758788  0.13839359  0.38062019  1  -0.070137  0  -0.098126  -0.131502  0  3.976059  0
C  C36  1  0.46364428  0.07778999  0.32739307  1  -0.054351  0  -0.103473  -0.092901  0  4.073099  0
C  C37  1  0.05793213  0.86695264  0.48078456  1  0.059108  0  -0.035323  -0.243853  0  3.966263  0
C  C38  1  0.85181972  0.93211134  0.52000953  1  0.532583  0  0.098065  0.224967  0  4.037909  0
C  C39  1  0.19969546  0.93696086  0.43061851  1  0.003504  0  -0.006635  0.074332  0  3.969238  0
C  C40  1  0.38881644  0.87844993  0.37367888  1  -0.059637  0  -0.105181  -0.147597  0  4.010253  0
C  C41  1  0.51930931  0.94668658  0.32341225  1  -0.001822  0  -0.104093  -0.095192  0  4.083395  0
O  O42  1  0.67705475  0.32407802  0.52824168  1  -1.273814  0  -0.242605  -0.618332  0  2.391139  0
O  O43  1  0.86280254  0.48430749  0.63189438  1  -1.255487  0  -0.23538  -0.603036  0  2.367189  0
O  O44  1  0.97436914  0.67217089  0.51646122  1  -1.257026  0  -0.244432  -0.615989  0  2.372629  0
O  O45  1  0.49026899  0.46417159  0.39106118  1  -1.258482  0  -0.23274  -0.580173  0  2.335896  0
O  O46  1  0.32365499  0.66658361  0.48766141  1  -1.257761  0  -0.232041  -0.593877  0  2.40293  0
O  O47  1  0.13374178  0.51089011  0.38760657  1  -1.257193  0  -0.234557  -0.596191  0  2.374601  0
O  O48  1  0.02143339  0.32454415  0.49437848  1  -1.247872  0  -0.222191  -0.558719  0  2.358212  0
O  O49  1  0.50587645  0.51931558  0.63234238  1  -1.261767  0  -0.236198  -0.595046  0  2.327906  0
O  O50  1  0.25780362  0.43891064  0.55537650  1  -1.412568  0  -0.446942  -0.986032  0  2.168689  0
O  O51  1  0.73350625  0.55309150  0.46830850  1  -1.423206  0  -0.449429  -0.996472  0  2.217995  0
O  O52  1  0.70265892  0.87711956  0.56195653  1  -1.151264  0  -0.335149  -0.396429  0  2.292471  0
O  O53  1  0.59151548  0.11752131  0.56291187  1  -1.132017  0  -0.330908  -0.392358  0  2.296651  0
F  F54  1  0.00051311  0.41452855  0.79193781  1  -0.6297  0  -0.095156  -0.140743  0  1.346198  0
F  F55  1  0.00452297  0.53400643  0.22878398  1  -0.628352  0  -0.083576  -0.127318  0  1.38254  0
