# generated using pymatgen
data_ZnH8C15S2NO4
_symmetry_space_group_name_H-M   'P 1'
_cell_length_a   13.87203835
_cell_length_b   14.18071133
_cell_length_c   14.10200000
_cell_angle_alpha   86.93691411
_cell_angle_beta   70.52848928
_cell_angle_gamma   70.86108576
_symmetry_Int_Tables_number   1
_chemical_formula_structural   ZnH8C15S2NO4
_chemical_formula_sum   'Zn4 H32 C60 S8 N4 O16'
_cell_volume   2465.99679798
_cell_formula_units_Z   4
loop_
 _symmetry_equiv_pos_site_id
 _symmetry_equiv_pos_as_xyz
  1  'x, y, z'
loop_
 _atom_site_type_symbol
 _atom_site_label
 _atom_site_symmetry_multiplicity
 _atom_site_fract_x
 _atom_site_fract_y
 _atom_site_fract_z
 _atom_site_occupancy
 _atom_site_hle17_bader_spin_density
 _atom_site_hle17_ddec_charge
 _atom_site_hle17_ddec_spin_density
 _atom_site_hle17_ddec_sum_bond_order
 _atom_site_hle17_magmom
 _atom_site_hse06_10hf_bader_spin_density
 _atom_site_hse06_10hf_ddec_charge
 _atom_site_hse06_10hf_ddec_spin_density
 _atom_site_hse06_10hf_ddec_sum_bond_order
 _atom_site_hse06_10hf_magmom
 _atom_site_hse06_bader_spin_density
 _atom_site_hse06_ddec_charge
 _atom_site_hse06_ddec_spin_density
 _atom_site_hse06_ddec_sum_bond_order
 _atom_site_hse06_magmom
 _atom_site_pbe_bader_charge
 _atom_site_pbe_bader_spin_density
 _atom_site_pbe_cm5_charge
 _atom_site_pbe_ddec_charge
 _atom_site_pbe_ddec_spin_density
 _atom_site_pbe_ddec_sum_bond_order
 _atom_site_pbe_magmom
Zn  Zn0  1  0.13728673  0.17403875  0.86413749  1  0  1.034982  0  1.898752  0  0  0.866268  0  2.368834  0  0  0.917342  0  2.303964  0  1.29675  0  0.673241  0.831322  0  2.413205  0
Zn  Zn1  1  0.36262041  0.13604025  0.82611188  1  0  1.034898  0  1.899567  0  0  0.86569  0  2.369708  0  0  0.916805  0  2.304854  0  1.295364  0  0.673274  0.830729  0  2.414062  0
Zn  Zn2  1  0.86271421  0.82596140  0.13586205  1  0  1.034967  0  1.898677  0  0  0.86625  0  2.368757  0  0  0.917327  0  2.303883  0  1.296842  0  0.673254  0.831301  0  2.413127  0
Zn  Zn3  1  0.63738077  0.86396140  0.17388751  1  0  1.034902  0  1.899668  0  0  0.8657  0  2.369822  0  0  0.916814  0  2.304971  0  1.295308  0  0.673247  0.830739  0  2.414177  0
H  H4  1  0.45266906  0.09142571  0.29551229  1  0  0.124764  0  0.965089  0  0  0.130584  0  1.03289  0  0  0.134411  0  1.030516  0  0.112719  0  0.100635  0.127755  0  1.034784  0
H  H5  1  0.04737794  0.70225051  0.90844194  1  0  0.123156  0  0.964918  0  0  0.130308  0  1.031196  0  0  0.134085  0  1.028924  0  0.154117  0  0.100465  0.127549  0  1.032987  0
H  H6  1  0.54733214  0.90857370  0.70448436  1  0  0.124758  0  0.965033  0  0  0.130589  0  1.032837  0  0  0.134416  0  1.030459  0  0.112782  0  0.100637  0.127764  0  1.034725  0
H  H7  1  0.95262071  0.29774965  0.09155835  1  0  0.123158  0  0.964924  0  0  0.130326  0  1.031184  0  0  0.134102  0  1.028914  0  0.154128  0  0.10048  0.127566  0  1.032975  0
H  H8  1  0.49030180  0.08971972  0.46696074  1  0  0.120684  0  0.928622  0  0  0.132576  0  0.98414  0  0  0.13536  0  0.98255  0  0.131459  0  0.113379  0.130579  0  0.985261  0
H  H9  1  0.01059117  0.53130288  0.91007299  1  0  0.120335  0  0.929676  0  0  0.132117  0  0.985563  0  0  0.134826  0  0.98405  0  0.099348  0  0.112712  0.130161  0  0.986649  0
H  H10  1  0.50970190  0.91028343  0.53303419  1  0  0.120753  0  0.928559  0  0  0.132633  0  0.984084  0  0  0.135413  0  0.982495  0  0.131542  0  0.113385  0.130634  0  0.985205  0
H  H11  1  0.98940954  0.46869578  0.08992600  1  0  0.12034  0  0.92966  0  0  0.132124  0  0.985549  0  0  0.134832  0  0.984036  0  0.099349  0  0.112715  0.130168  0  0.986634  0
H  H12  1  0.01714892  0.18045286  0.22692337  1  0  0.114764  0  0.93878  0  0  0.124736  0  0.999312  0  0  0.127925  0  0.996751  0  0.103928  0  0.10859  0.122437  0  1.001154  0
H  H13  1  0.48165691  0.77483328  0.81986584  1  0  0.113698  0  0.939332  0  0  0.123722  0  1.000076  0  0  0.126792  0  0.99765  0  0.120689  0  0.108044  0.121496  0  1.00183  0
H  H14  1  0.98284817  0.81954954  0.77307803  1  0  0.114701  0  0.938733  0  0  0.124666  0  0.999287  0  0  0.127855  0  0.996727  0  0.103913  0  0.108565  0.122368  0  1.001127  0
H  H15  1  0.51833990  0.22516987  0.18013702  1  0  0.113703  0  0.939381  0  0  0.123728  0  1.000111  0  0  0.126796  0  0.997687  0  0.120666  0  0.108054  0.121501  0  1.001865  0
H  H16  1  0.05860799  0.17192066  0.39794984  1  0  0.111066  0  0.942831  0  0  0.123399  0  0.997468  0  0  0.126928  0  0.995716  0  0.058049  0  0.10281  0.120869  0  0.998789  0
H  H17  1  0.44110775  0.60437180  0.82812710  1  0  0.110388  0  0.942868  0  0  0.123419  0  0.996877  0  0  0.1269  0  0.995187  0  0.070796  0  0.102563  0.120928  0  0.998157  0
H  H18  1  0.94138916  0.82807725  0.60205177  1  0  0.111078  0  0.942779  0  0  0.1234  0  0.997426  0  0  0.126933  0  0.995671  0  0.058095  0  0.102814  0.120871  0  0.998746  0
H  H19  1  0.55889113  0.39562985  0.17187233  1  0  0.110396  0  0.942861  0  0  0.123455  0  0.996841  0  0  0.126911  0  0.995181  0  0.070748  0  0.102562  0.120962  0  0.998122  0
H  H20  1  0.78341597  0.30249965  0.78680277  1  0  0.109463  0  0.937242  0  0  0.122945  0  0.988119  0  0  0.125889  0  0.988072  0  0.08856  0  0.115077  0.120851  0  0.988282  0
H  H21  1  0.71725332  0.21364377  0.69671570  1  0  0.110178  0  0.936499  0  0  0.123395  0  0.987618  0  0  0.126347  0  0.987555  0  0.075529  0  0.115101  0.121293  0  0.987783  0
H  H22  1  0.21658267  0.69750051  0.21319753  1  0  0.109462  0  0.937234  0  0  0.122944  0  0.988112  0  0  0.125887  0  0.988066  0  0.088564  0  0.115082  0.12085  0  0.988275  0
H  H23  1  0.28274609  0.78635638  0.30328505  1  0  0.110147  0  0.936458  0  0  0.123374  0  0.987568  0  0  0.126327  0  0.987505  0  0.075532  0  0.115087  0.121272  0  0.987735  0
H  H24  1  0.95596753  0.30929444  0.80282242  1  0  0.096168  0  0.90615  0  0  0.107804  0  0.959154  0  0  0.110497  0  0.956971  0  0.135984  0  0.131207  0.105753  0  0.96088  0
H  H25  1  0.54467782  0.19774687  0.69008463  1  0  0.096346  0  0.907118  0  0  0.10786  0  0.960113  0  0  0.110545  0  0.957942  0  0.133159  0  0.131284  0.105818  0  0.961828  0
H  H26  1  0.04403162  0.69070646  0.19717767  1  0  0.096165  0  0.906157  0  0  0.107803  0  0.959158  0  0  0.110495  0  0.956976  0  0.135986  0  0.131206  0.105752  0  0.960885  0
H  H27  1  0.45532236  0.80225329  0.30991587  1  0  0.096337  0  0.90712  0  0  0.107847  0  0.960124  0  0  0.110532  0  0.957952  0  0.13313  0  0.131286  0.105804  0  0.961839  0
H  H28  1  0.01623148  0.03329412  0.92476852  1  0  0.086703  0  0.950191  0  0  0.093857  0  1.01744  0  0  0.096556  0  1.014357  0  0.127589  0  0.118911  0.091854  0  1.019733  0
H  H29  1  0.48328109  0.07473527  0.96722232  1  0  0.086072  0  0.950795  0  0  0.093079  0  1.018315  0  0  0.095798  0  1.015203  0  0.119306  0  0.118715  0.091081  0  1.020582  0
H  H30  1  0.98376946  0.96670603  0.07523173  1  0  0.086707  0  0.950194  0  0  0.093858  0  1.017444  0  0  0.096557  0  1.01436  0  0.127617  0  0.118917  0.091856  0  1.019737  0
H  H31  1  0.51671881  0.92526563  0.03277823  1  0  0.086073  0  0.95075  0  0  0.09308  0  1.018275  0  0  0.095802  0  1.015155  0  0.119196  0  0.118722  0.091081  0  1.020545  0
H  H32  1  0.84630100  0.01446091  0.91763718  1  0  0.119631  0  0.958179  0  0  0.127285  0  1.022251  0  0  0.129846  0  1.022607  0  0.143679  0  0.110672  0.125431  0  1.022172  0
H  H33  1  0.65299478  0.08189579  0.98612564  1  0  0.120217  0  0.959725  0  0  0.127411  0  1.024484  0  0  0.129942  0  1.024879  0  0.121934  0  0.110572  0.125542  0  1.024422  0
H  H34  1  0.15369967  0.98553999  0.08236383  1  0  0.119632  0  0.958177  0  0  0.127282  0  1.022261  0  0  0.129842  0  1.022619  0  0.143681  0  0.110669  0.125427  0  1.022182  0
H  H35  1  0.34700540  0.91810436  0.01387486  1  0  0.120214  0  0.959734  0  0  0.127408  0  1.024492  0  0  0.129938  0  1.024888  0  0.121929  0  0.110569  0.125535  0  1.024431  0
C  C36  1  0.19924757  0.15986355  0.04144989  1  0  0.659747  0  3.954804  0  0  0.610526  0  4.243468  0  0  0.646716  0  4.234989  0  1.580694  0  0.200815  0.585892  0  4.24862  0
C  C37  1  0.29993649  0.95838998  0.84014871  1  0  0.658103  0  3.954395  0  0  0.609023  0  4.243791  0  0  0.645085  0  4.235378  0  1.574192  0  0.199709  0.58451  0  4.248854  0
C  C38  1  0.80075796  0.84013661  0.95854956  1  0  0.659665  0  3.954977  0  0  0.610421  0  4.243667  0  0  0.646613  0  4.235183  0  1.58056  0  0.2007  0.585795  0  4.248825  0
C  C39  1  0.70006518  0.04161242  0.15985118  1  0  0.658139  0  3.954645  0  0  0.609042  0  4.244057  0  0  0.645104  0  4.235646  0  1.573995  0  0.199757  0.584526  0  4.249125  0
C  C40  1  0.30124992  0.14754765  0.65109218  1  0  0.668891  0  3.93109  0  0  0.620667  0  4.21656  0  0  0.656883  0  4.208734  0  1.561256  0  0.202999  0.596025  0  4.221215  0
C  C41  1  0.19970010  0.34904530  0.85238341  1  0  0.671193  0  3.928267  0  0  0.623772  0  4.213778  0  0  0.659882  0  4.205979  0  1.607213  0  0.203522  0.599206  0  4.218385  0
C  C42  1  0.69876505  0.85245175  0.34890422  1  0  0.66892  0  3.931351  0  0  0.62075  0  4.216702  0  0  0.656968  0  4.208872  0  1.561901  0  0.203017  0.596121  0  4.221358  0
C  C43  1  0.80030390  0.65095485  0.14761655  1  0  0.671149  0  3.928405  0  0  0.623749  0  4.213883  0  0  0.659856  0  4.206089  0  1.607202  0  0.203494  0.59918  0  4.218497  0
C  C44  1  0.31615128  0.14215893  0.54317545  1  0  -0.148518  0  3.741804  0  0  -0.131067  0  4.008227  0  0  -0.139939  0  4.029363  0  -0.145805  0  -0.029641  -0.125219  0  3.993884  0
C  C45  1  0.18479586  0.45658631  0.85762301  1  0  -0.148083  0  3.735655  0  0  -0.131498  0  4.003509  0  0  -0.140108  0  4.024444  0  -0.198496  0  -0.029627  -0.125751  0  3.989208  0
C  C46  1  0.68385352  0.85783898  0.45682295  1  0  -0.148605  0  3.74204  0  0  -0.131126  0  4.008368  0  0  -0.140003  0  4.029504  0  -0.145872  0  -0.029629  -0.125327  0  3.994092  0
C  C47  1  0.81520356  0.54341385  0.14237632  1  0  -0.148046  0  3.735652  0  0  -0.131455  0  4.003479  0  0  -0.140059  0  4.024413  0  -0.198476  0  -0.029611  -0.125703  0  3.989175  0
C  C48  1  0.27881868  0.14554923  0.38289463  1  0  -0.026015  0  3.829869  0  0  -0.017879  0  4.101328  0  0  -0.017522  0  4.125217  0  -0.218029  0  -0.024492  -0.018002  0  4.085089  0
C  C49  1  0.22140197  0.61692852  0.85426963  1  0  -0.027734  0  3.828938  0  0  -0.016954  0  4.097034  0  0  -0.016716  0  4.120965  0  -0.217676  0  -0.024553  -0.016966  0  4.080572  0
C  C50  1  0.72118183  0.85444569  0.61710534  1  0  -0.025961  0  3.82982  0  0  -0.017822  0  4.101279  0  0  -0.017547  0  4.125115  0  -0.21854  0  -0.024499  -0.017949  0  4.085041  0
C  C51  1  0.77859641  0.38307238  0.14572929  1  0  -0.02771  0  3.828844  0  0  -0.016926  0  4.096945  0  0  -0.016677  0  4.120864  0  -0.21773  0  -0.024533  -0.016939  0  4.080484  0
C  C52  1  0.18652565  0.16292476  0.14876287  1  0  -0.165778  0  3.766298  0  0  -0.148574  0  4.036022  0  0  -0.157828  0  4.056918  0  -0.211472  0  -0.035811  -0.142391  0  4.021759  0
C  C53  1  0.31252399  0.85147722  0.83711353  1  0  -0.166499  0  3.759332  0  0  -0.149217  0  4.02928  0  0  -0.158255  0  4.050038  0  -0.225307  0  -0.036185  -0.143199  0  4.015105  0
C  C54  1  0.81347147  0.83707540  0.85123864  1  0  -0.165794  0  3.76629  0  0  -0.148516  0  4.035917  0  0  -0.157775  0  4.056824  0  -0.211744  0  -0.035768  -0.14235  0  4.021672  0
C  C55  1  0.68747156  0.14852517  0.16289121  1  0  -0.166481  0  3.759304  0  0  -0.149195  0  4.02925  0  0  -0.158228  0  4.050004  0  -0.225225  0  -0.03616  -0.143173  0  4.015074  0
C  C56  1  0.38929490  0.11457812  0.36881703  1  0  -0.128567  0  3.723107  0  0  -0.153384  0  3.986531  0  0  -0.15688  0  4.005432  0  0.041771  0  -0.108838  -0.150771  0  3.973333  0
C  C57  1  0.11107272  0.62981582  0.88520750  1  0  -0.126993  0  3.725086  0  0  -0.153332  0  3.987352  0  0  -0.156774  0  4.006315  0  -0.020073  0  -0.108734  -0.150823  0  3.97416  0
C  C58  1  0.61070737  0.88541829  0.63118086  1  0  -0.128633  0  3.723053  0  0  -0.153481  0  3.986497  0  0  -0.156974  0  4.005407  0  0.041488  0  -0.108867  -0.150866  0  3.973291  0
C  C59  1  0.88892745  0.37018434  0.11479230  1  0  -0.127031  0  3.725039  0  0  -0.153392  0  3.987316  0  0  -0.156833  0  4.006275  0  -0.02004  0  -0.108782  -0.150881  0  3.974124  0
C  C60  1  0.41004766  0.11290803  0.46026314  1  0  -0.05671  0  3.742736  0  0  -0.087869  0  4.003007  0  0  -0.084819  0  4.020649  0  -0.05397  0  -0.091865  -0.089495  0  3.990539  0
C  C61  1  0.09078721  0.53850005  0.88683469  1  0  -0.057785  0  3.744868  0  0  -0.088627  0  4.005919  0  0  -0.085655  0  4.023658  0  0.009035  0  -0.092101  -0.090242  0  3.993421  0
C  C62  1  0.58995687  0.88709063  0.53973247  1  0  -0.056653  0  3.742783  0  0  -0.087809  0  4.003025  0  0  -0.084756  0  4.02066  0  -0.053641  0  -0.091794  -0.089424  0  3.990569  0
C  C63  1  0.90921274  0.46149861  0.11316526  1  0  -0.057784  0  3.744856  0  0  -0.088624  0  4.005907  0  0  -0.085659  0  4.023647  0  0.009032  0  -0.092102  -0.090242  0  3.993408  0
C  C64  1  0.22649250  0.15502006  0.30855154  1  0  -0.003045  0  3.814844  0  0  0.004122  0  4.086547  0  0  0.006477  0  4.109595  0  -0.191623  0  -0.016577  0.002518  0  4.070936  0
C  C65  1  0.27327845  0.69158750  0.84489196  1  0  -0.002918  0  3.812516  0  0  0.003547  0  4.083957  0  0  0.00614  0  4.106689  0  -0.203764  0  -0.016766  0.001927  0  4.06837  0
C  C66  1  0.77350648  0.84497486  0.69144963  1  0  -0.003099  0  3.814849  0  0  0.004068  0  4.086554  0  0  0.00669  0  4.109219  0  -0.19106  0  -0.016625  0.002463  0  4.070943  0
C  C67  1  0.72671993  0.30841340  0.15510768  1  0  -0.002893  0  3.812521  0  0  0.003575  0  4.08396  0  0  0.006159  0  4.106694  0  -0.203736  0  -0.016741  0.001953  0  4.068375  0
C  C68  1  0.09589649  0.17180623  0.23268901  1  0  -0.065013  0  3.77534  0  0  -0.093489  0  4.032213  0  0  -0.089479  0  4.049161  0  -0.030834  0  -0.09671  -0.095724  0  4.020142  0
C  C69  1  0.40308877  0.76856875  0.82834849  1  0  -0.065027  0  3.777063  0  0  -0.093444  0  4.034307  0  0  -0.08946  0  4.051378  0  -0.044183  0  -0.097517  -0.095644  0  4.022153  0
C  C70  1  0.90410013  0.82819318  0.76731199  1  0  -0.064933  0  3.775275  0  0  -0.093416  0  4.032138  0  0  -0.089412  0  4.049109  0  -0.030702  0  -0.096712  -0.095646  0  4.020068  0
C  C71  1  0.59690884  0.23143215  0.17165423  1  0  -0.065085  0  3.777153  0  0  -0.093498  0  4.034412  0  0  -0.089514  0  4.051472  0  -0.044242  0  -0.097566  -0.095701  0  4.022257  0
C  C72  1  0.11828833  0.16752069  0.32345952  1  0  -0.146164  0  3.764524  0  0  -0.16826  0  4.021795  0  0  -0.172658  0  4.040376  0  0.036716  0  -0.113035  -0.165055  0  4.008763  0
C  C73  1  0.38118340  0.67792536  0.83252999  1  0  -0.146295  0  3.766024  0  0  -0.169043  0  4.023436  0  0  -0.173417  0  4.041982  0  0.045459  0  -0.11372  -0.165933  0  4.01043  0
C  C74  1  0.88171088  0.83247573  0.67654079  1  0  -0.146165  0  3.764485  0  0  -0.168261  0  4.021771  0  0  -0.172741  0  4.040279  0  0.036658  0  -0.113014  -0.165055  0  4.008738  0
C  C75  1  0.61881445  0.32207704  0.16747045  1  0  -0.146287  0  3.766064  0  0  -0.169064  0  4.023467  0  0  -0.173414  0  4.042025  0  0.045448  0  -0.11372  -0.16595  0  4.01046  0
C  C76  1  0.83269800  0.24087456  0.81767659  1  0  -0.160862  0  3.715904  0  0  -0.178823  0  3.958275  0  0  -0.186894  0  3.979772  0  -0.003848  0  -0.075846  -0.173579  0  3.943692  0
C  C77  1  0.66777867  0.18249317  0.75866572  1  0  -0.16209  0  3.716832  0  0  -0.179807  0  3.959305  0  0  -0.187872  0  3.980769  0  0.01146  0  -0.076013  -0.174564  0  3.944738  0
C  C78  1  0.16730168  0.75912485  0.18232341  1  0  -0.160844  0  3.715853  0  0  -0.178803  0  3.958222  0  0  -0.186873  0  3.979718  0  -0.003859  0  -0.075838  -0.173559  0  3.94364  0
C  C79  1  0.33222303  0.81750699  0.24133428  1  0  -0.162113  0  3.716862  0  0  -0.179823  0  3.959331  0  0  -0.187889  0  3.980796  0  0.011466  0  -0.076029  -0.174579  0  3.944764  0
C  C80  1  0.92767186  0.24574422  0.82667839  1  0  0.146447  0  3.685434  0  0  0.114291  0  3.934658  0  0  0.121712  0  3.952659  0  0.464398  0  0.061998  0.109532  0  3.922377  0
C  C81  1  0.57274313  0.17355710  0.75382762  1  0  0.146671  0  3.685741  0  0  0.114314  0  3.934547  0  0  0.121748  0  3.952551  0  0.472051  0  0.061919  0.109548  0  3.922283  0
C  C82  1  0.07232755  0.75425593  0.17332166  1  0  0.146421  0  3.685414  0  0  0.114271  0  3.934652  0  0  0.121692  0  3.952653  0  0.464393  0  0.061991  0.109512  0  3.92237  0
C  C83  1  0.42725654  0.82644231  0.24617309  1  0  0.146737  0  3.685727  0  0  0.114364  0  3.934541  0  0  0.121803  0  3.952548  0  0.472008  0  0.061943  0.109599  0  3.922278  0
C  C84  1  0.96052941  0.09152593  0.89673465  1  0  0.145022  0  3.685853  0  0  0.108942  0  3.941388  0  0  0.116608  0  3.958762  0  0.449428  0  0.056264  0.104015  0  3.929574  0
C  C85  1  0.53921380  0.10298397  0.90866447  1  0  0.145723  0  3.686762  0  0  0.109607  0  3.941883  0  0  0.117249  0  3.95934  0  0.456673  0  0.057201  0.104714  0  3.930019  0
C  C86  1  0.03947077  0.90847422  0.10326514  1  0  0.144973  0  3.685907  0  0  0.108903  0  3.941445  0  0  0.116571  0  3.958818  0  0.449416  0  0.056255  0.103977  0  3.929629  0
C  C87  1  0.46078588  0.89701544  0.09133623  1  0  0.14575  0  3.686797  0  0  0.109629  0  3.941899  0  0  0.117277  0  3.95936  0  0.456878  0  0.057202  0.104734  0  3.930038  0
C  C88  1  0.86606381  0.08169909  0.89167457  1  0  -0.146914  0  3.683985  0  0  -0.166442  0  3.932759  0  0  -0.174767  0  3.955091  0  -0.017214  0  -0.074051  -0.161063  0  3.917729  0
C  C89  1  0.63367353  0.10800247  0.91851399  1  0  -0.148542  0  3.684059  0  0  -0.168235  0  3.933508  0  0  -0.176494  0  3.955827  0  0.004316  0  -0.075154  -0.16288  0  3.918516  0
C  C90  1  0.13393664  0.91830031  0.10832588  1  0  -0.146892  0  3.683975  0  0  -0.166411  0  3.932727  0  0  -0.174736  0  3.95506  0  -0.017187  0  -0.074048  -0.161031  0  3.917699  0
C  C91  1  0.36632768  0.89199694  0.08148621  1  0  -0.148542  0  3.684155  0  0  -0.168235  0  3.933607  0  0  -0.176494  0  3.955925  0  0.004063  0  -0.07514  -0.162874  0  3.918616  0
C  C92  1  0.80022495  0.15738496  0.85065648  1  0  0.100097  0  3.759128  0  0  0.11263  0  3.987291  0  0  0.116684  0  4.009046  0  0.006547  0  0.018249  0.110116  0  3.972373  0
C  C93  1  0.69991370  0.14923569  0.84246489  1  0  0.100479  0  3.759303  0  0  0.113126  0  3.987364  0  0  0.117185  0  4.009088  0  -0.039282  0  0.018391  0.110608  0  3.972466  0
C  C94  1  0.19977626  0.84261445  0.14934372  1  0  0.100125  0  3.759103  0  0  0.112657  0  3.987267  0  0  0.116712  0  4.009021  0  0.006548  0  0.018266  0.110143  0  3.97235  0
C  C95  1  0.30008597  0.85076371  0.15753510  1  0  0.100457  0  3.759333  0  0  0.113097  0  3.987401  0  0  0.117155  0  4.009124  0  -0.039279  0  0.01838  0.110578  0  3.9725  0
S  S96  1  0.29890283  0.15059839  0.18185458  1  0  0.134142  0  2.580941  0  0  0.134117  0  2.889469  0  0  0.132962  0  2.897632  0  0.247307  0  0.090853  0.134478  0  2.884311  0
S  S97  1  0.20068870  0.81721380  0.84925141  1  0  0.133007  0  2.574172  0  0  0.132785  0  2.882797  0  0  0.131484  0  2.890842  0  0.24273  0  0.089765  0.133185  0  2.877676  0
S  S98  1  0.70109513  0.84939728  0.81814618  1  0  0.134164  0  2.58097  0  0  0.134127  0  2.889473  0  0  0.132879  0  2.897539  0  0.247551  0  0.090875  0.134485  0  2.884321  0
S  S99  1  0.79930891  0.18278710  0.15075060  1  0  0.132964  0  2.574043  0  0  0.132741  0  2.882667  0  0  0.131439  0  2.890714  0  0.242864  0  0.089728  0.133141  0  2.877547  0
S  S100  1  0.20200397  0.17254741  0.50895471  1  0  0.114165  0  2.561266  0  0  0.110156  0  2.850773  0  0  0.109457  0  2.858815  0  0.235493  0  0.072147  0.110232  0  2.845583  0
S  S101  1  0.29857118  0.49189980  0.82726455  1  0  0.111848  0  2.557252  0  0  0.107251  0  2.845827  0  0  0.10647  0  2.853854  0  0.230509  0  0.069955  0.107343  0  2.840626  0
S  S102  1  0.79799937  0.82744601  0.49104653  1  0  0.114165  0  2.561305  0  0  0.110149  0  2.850784  0  0  0.10944  0  2.858852  0  0.235368  0  0.072129  0.110238  0  2.845615  0
S  S103  1  0.70142899  0.50810036  0.17273382  1  0  0.111852  0  2.557315  0  0  0.107247  0  2.845885  0  0  0.106465  0  2.853906  0  0.230511  0  0.069966  0.10734  0  2.840684  0
N  N104  1  0.99070172  0.17193637  0.86513202  1  0  -0.301762  0  3.276559  0  0  -0.2204  0  3.547734  0  0  -0.239805  0  3.562292  0  -1.24076  0  -0.323431  -0.207402  0  3.537782  0
N  N105  1  0.50936205  0.13484284  0.82795292  1  0  -0.301922  0  3.27572  0  0  -0.219433  0  3.545559  0  0  -0.238868  0  3.560186  0  -1.242072  0  -0.32355  -0.206459  0  3.535615  0
N  N106  1  0.00929896  0.82806454  0.13486757  1  0  -0.301737  0  3.276556  0  0  -0.220413  0  3.547777  0  0  -0.239819  0  3.562335  0  -1.24077  0  -0.323443  -0.207413  0  3.537821  0
N  N107  1  0.49063889  0.86515731  0.17204591  1  0  -0.301934  0  3.27564  0  0  -0.21942  0  3.545454  0  0  -0.238869  0  3.560096  0  -1.241917  0  -0.323552  -0.206448  0  3.535511  0
O  O108  1  0.11695048  0.16547439  0.01688009  1  0  -0.621091  0  2.037119  0  0  -0.55623  0  2.292689  0  0  -0.584301  0  2.279779  0  -1.166431  0  -0.316173  -0.536957  0  2.301166  0
O  O109  1  0.38226668  0.98294099  0.83473707  1  0  -0.623287  0  2.031466  0  0  -0.558295  0  2.284855  0  0  -0.586353  0  2.272314  0  -1.166312  0  -0.316729  -0.53904  0  2.293056  0
O  O110  1  0.88304797  0.83452202  0.98311834  1  0  -0.620878  0  2.037329  0  0  -0.556007  0  2.292909  0  0  -0.584074  0  2.279991  0  -1.16651  0  -0.316042  -0.536742  0  2.301387  0
O  O111  1  0.61772581  0.01706141  0.16526228  1  0  -0.623365  0  2.031359  0  0  -0.55837  0  2.284782  0  0  -0.586431  0  2.272248  0  -1.166375  0  -0.316762  -0.539114  0  2.292982  0
O  O112  1  0.38578638  0.12261446  0.67685306  1  0  -0.614439  0  2.028356  0  0  -0.548633  0  2.280083  0  0  -0.577765  0  2.26731  0  -1.159628  0  -0.317472  -0.52862  0  2.288311  0
O  O113  1  0.11495724  0.32324079  0.87742178  1  0  -0.618598  0  2.020257  0  0  -0.553609  0  2.270821  0  0  -0.582685  0  2.258181  0  -1.159787  0  -0.319919  -0.533644  0  2.278961  0
O  O114  1  0.61422110  0.87739093  0.32314193  1  0  -0.61446  0  2.028263  0  0  -0.548669  0  2.279965  0  0  -0.577803  0  2.267194  0  -1.160011  0  -0.317469  -0.528649  0  2.288181  0
O  O115  1  0.88504015  0.67675862  0.12258109  1  0  -0.618533  0  2.020534  0  0  -0.553543  0  2.271072  0  0  -0.582618  0  2.258434  0  -1.159925  0  -0.319866  -0.533581  0  2.279216  0
O  O116  1  0.29441241  0.14988189  0.98066518  1  0  -0.648597  0  2.110199  0  0  -0.583077  0  2.376495  0  0  -0.61105  0  2.361689  0  -1.185914  0  -0.321498  -0.563764  0  2.386147  0
O  O117  1  0.20515956  0.01877338  0.84991068  1  0  -0.649902  0  2.09415  0  0  -0.585272  0  2.358083  0  0  -0.613028  0  2.343495  0  -1.182071  0  -0.322523  -0.566095  0  2.367563  0
O  O118  1  0.70558414  0.85012200  0.01933773  1  0  -0.648668  0  2.110026  0  0  -0.583191  0  2.376418  0  0  -0.61117  0  2.361612  0  -1.185858  0  -0.321503  -0.563843  0  2.385995  0
O  O119  1  0.79483320  0.98122827  0.15008863  1  0  -0.649869  0  2.094494  0  0  -0.585245  0  2.358439  0  0  -0.612997  0  2.343851  0  -1.181997  0  -0.322544  -0.566072  0  2.367926  0
O  O120  1  0.20310029  0.17620172  0.71030427  1  0  -0.643936  0  2.088405  0  0  -0.580587  0  2.347249  0  0  -0.608538  0  2.332543  0  -1.168817  0  -0.325424  -0.561303  0  2.35686  0
O  O121  1  0.29767700  0.29032287  0.82387285  1  0  -0.645978  0  2.074224  0  0  -0.583867  0  2.330914  0  0  -0.611614  0  2.316324  0  -1.172791  0  -0.3271  -0.564726  0  2.340433  0
O  O122  1  0.79690623  0.82379993  0.28969761  1  0  -0.643936  0  2.088696  0  0  -0.5806  0  2.347503  0  0  -0.608547  0  2.332794  0  -1.169056  0  -0.325434  -0.561317  0  2.35711  0
O  O123  1  0.70232035  0.70967878  0.17612920  1  0  -0.646027  0  2.074098  0  0  -0.58393  0  2.330791  0  0  -0.611679  0  2.316203  0  -1.172653  0  -0.327147  -0.564792  0  2.340314  0
