# generated using pymatgen
data_CuH8C8S2IN2
_symmetry_space_group_name_H-M   'P 1'
_cell_length_a   7.19474135
_cell_length_b   10.47026812
_cell_length_c   10.90801931
_cell_angle_alpha   96.95625825
_cell_angle_beta   92.89259329
_cell_angle_gamma   105.08161461
_symmetry_Int_Tables_number   1
_chemical_formula_structural   CuH8C8S2IN2
_chemical_formula_sum   'Cu2 H16 C16 S4 I2 N4'
_cell_volume   784.68139895
_cell_formula_units_Z   2
loop_
 _symmetry_equiv_pos_site_id
 _symmetry_equiv_pos_as_xyz
  1  'x, y, z'
loop_
 _atom_site_type_symbol
 _atom_site_label
 _atom_site_symmetry_multiplicity
 _atom_site_fract_x
 _atom_site_fract_y
 _atom_site_fract_z
 _atom_site_occupancy
 _atom_site_hle17_bader_spin_density
 _atom_site_hle17_ddec_charge
 _atom_site_hle17_ddec_spin_density
 _atom_site_hle17_ddec_sum_bond_order
 _atom_site_hle17_magmom
 _atom_site_hse06_10hf_bader_spin_density
 _atom_site_hse06_10hf_ddec_charge
 _atom_site_hse06_10hf_ddec_spin_density
 _atom_site_hse06_10hf_ddec_sum_bond_order
 _atom_site_hse06_10hf_magmom
 _atom_site_hse06_bader_spin_density
 _atom_site_hse06_ddec_charge
 _atom_site_hse06_ddec_spin_density
 _atom_site_hse06_ddec_sum_bond_order
 _atom_site_hse06_magmom
 _atom_site_pbe_bader_spin_density
 _atom_site_pbe_cm5_charge
 _atom_site_pbe_ddec_charge
 _atom_site_pbe_ddec_spin_density
 _atom_site_pbe_ddec_sum_bond_order
 _atom_site_pbe_magmom
Cu  Cu0  1  0.51001511  0.39317416  0.59692909  1  0  0.23491  0  2.355905  0  0  0.177103  0  2.836617  0  0  0.181363  0  2.791688  0  0  0.244606  0.176937  0  2.864622  0
Cu  Cu1  1  0.48996984  0.60681711  0.40306256  1  0  0.234928  0  2.355953  0  0  0.177115  0  2.836676  0  0  0.18136  0  2.791744  0  0  0.244601  0.176956  0  2.864667  0
H  H2  1  0.84028636  0.51507678  0.79712529  1  0  0.08479  0  1.009822  0  0  0.094284  0  1.078529  0  0  0.097965  0  1.07559  0  0  0.080851  0.091512  0  1.080789  0
H  H3  1  0.15971487  0.48492139  0.20287892  1  0  0.084834  0  1.00994  0  0  0.094342  0  1.078619  0  0  0.098023  0  1.075681  0  0  0.080869  0.091571  0  1.080875  0
H  H4  1  0.32983562  0.46814672  0.01631409  1  0  0.093895  0  0.982315  0  0  0.100204  0  1.050537  0  0  0.103206  0  1.049546  0  0  0.091735  0.0972  0  1.052839  0
H  H5  1  0.67017217  0.53185837  0.98369594  1  0  0.093992  0  0.982279  0  0  0.100282  0  1.05052  0  0  0.103264  0  1.049548  0  0  0.091754  0.097278  0  1.052824  0
H  H6  1  0.05519571  0.21535565  0.63696118  1  0  0.090514  0  1.008539  0  0  0.096629  0  1.077194  0  0  0.098928  0  1.077345  0  0  0.085205  0.094959  0  1.077226  0
H  H7  1  0.94479865  0.78462672  0.36303501  1  0  0.090494  0  1.008345  0  0  0.096693  0  1.076929  0  0  0.098999  0  1.077079  0  0  0.085269  0.095011  0  1.07699  0
H  H8  1  0.70124011  0.90637176  0.35837252  1  0  0.085147  0  0.970884  0  0  0.092453  0  1.041586  0  0  0.096289  0  1.038179  0  0  0.094689  0.089609  0  1.044281  0
H  H9  1  0.29877505  0.09362651  0.64163769  1  0  0.085073  0  0.970749  0  0  0.092378  0  1.041488  0  0  0.096216  0  1.03808  0  0  0.094665  0.089528  0  1.044196  0
H  H10  1  0.05983583  0.58857530  0.68464231  1  0  0.318668  0  0.908091  0  0  0.302246  0  0.972012  0  0  0.309822  0  0.966622  0  0  0.287751  0.297157  0  0.975377  0
H  H11  1  0.94015180  0.41141578  0.31535674  1  0  0.318694  0  0.908115  0  0  0.30224  0  0.972069  0  0  0.309818  0  0.966677  0  0  0.287722  0.297151  0  0.975435  0
H  H12  1  0.22489549  0.52252726  0.60351179  1  0  0.306404  0  0.929101  0  0  0.28223  0  1.011225  0  0  0.292564  0  1.000512  0  0  0.277157  0.274797  0  1.018796  0
H  H13  1  0.77507762  0.47746217  0.39649662  1  0  0.306451  0  0.928904  0  0  0.28225  0  1.011087  0  0  0.29259  0  1.000375  0  0  0.277087  0.274815  0  1.018661  0
H  H14  1  0.59039662  0.05478041  0.32346789  1  0  0.329858  0  0.867237  0  0  0.325069  0  0.90707  0  0  0.331999  0  0.901853  0  0  0.323123  0.320286  0  0.910723  0
H  H15  1  0.40959673  0.94521500  0.67652465  1  0  0.329865  0  0.867456  0  0  0.325062  0  0.907283  0  0  0.331998  0  0.902058  0  0  0.323141  0.320275  0  0.910936  0
H  H16  1  0.49005491  0.18014623  0.38907675  1  0  0.316927  0  0.9346  0  0  0.29822  0  1.00576  0  0  0.307442  0  0.99739  0  0  0.275851  0.291568  0  1.011897  0
H  H17  1  0.50993788  0.81984372  0.61092965  1  0  0.316803  0  0.93438  0  0  0.298094  0  1.005607  0  0  0.30732  0  0.997236  0  0  0.275777  0.291439  0  1.01174  0
C  C18  1  0.20517383  0.47943326  0.78022729  1  0  0.348146  0  3.750967  0  0  0.325677  0  4.027949  0  0  0.349918  0  4.035825  0  0  0.14623  0.309798  0  4.021786  0
C  C19  1  0.79482405  0.52057519  0.21976547  1  0  0.348105  0  3.751141  0  0  0.32553  0  4.028306  0  0  0.349776  0  4.036178  0  0  0.146153  0.30965  0  4.022134  0
C  C20  1  0.10036635  0.49129158  0.89243881  1  0  0.005231  0  3.75096  0  0  0.028466  0  3.977673  0  0  0.023401  0  4.000178  0  0  -0.008065  0.030987  0  3.962696  0
C  C21  1  0.89964624  0.50872336  0.10757741  1  0  0.005508  0  3.7508  0  0  0.028773  0  3.977519  0  0  0.023705  0  4.000014  0  0  -0.007901  0.0313  0  3.962534  0
C  C22  1  0.91363936  0.51009316  0.88568350  1  0  -0.078971  0  3.710324  0  0  -0.098886  0  3.949781  0  0  -0.099611  0  3.968983  0  0  -0.090623  -0.09933  0  3.937782  0
C  C23  1  0.08637425  0.48991276  0.11433510  1  0  -0.079088  0  3.710081  0  0  -0.099007  0  3.949505  0  0  -0.099736  0  3.968718  0  0  -0.090623  -0.099453  0  3.937503  0
C  C24  1  0.18459356  0.48116123  0.00864679  1  0  -0.073773  0  3.720575  0  0  -0.092825  0  3.960181  0  0  -0.093357  0  3.979465  0  0  -0.084765  -0.091873  0  3.948097  0
C  C25  1  0.81540518  0.51883782  0.99135931  1  0  -0.074054  0  3.720629  0  0  -0.093091  0  3.96024  0  0  -0.093603  0  3.979533  0  0  -0.084814  -0.09214  0  3.948155  0
C  C26  1  0.71921317  0.15345135  0.49301761  1  0  0.341247  0  3.764612  0  0  0.317294  0  4.051867  0  0  0.341357  0  4.060173  0  0  0.139386  0.30119  0  4.045818  0
C  C27  1  0.28083933  0.84657383  0.50695835  1  0  0.340782  0  3.7652  0  0  0.316978  0  4.052319  0  0  0.341032  0  4.060641  0  0  0.139393  0.300879  0  4.046261  0
C  C28  1  0.86018773  0.07316154  0.49691435  1  0  0.000481  0  3.755406  0  0  0.021042  0  3.988166  0  0  0.016064  0  4.009901  0  0  -0.014786  0.024087  0  3.97382  0
C  C29  1  0.13978241  0.92682749  0.50310398  1  0  0.000687  0  3.75518  0  0  0.021106  0  3.988097  0  0  0.016139  0  4.009835  0  0  -0.014776  0.024143  0  3.97374  0
C  C30  1  0.02908539  0.11992361  0.57793012  1  0  -0.068027  0  3.738716  0  0  -0.087056  0  3.980167  0  0  -0.086536  0  3.998473  0  0  -0.091103  -0.087755  0  3.96828  0
C  C31  1  0.97092943  0.88008541  0.42205688  1  0  -0.068007  0  3.738552  0  0  -0.087054  0  3.979984  0  0  -0.086546  0  3.998293  0  0  -0.091189  -0.087753  0  3.968105  0
C  C32  1  0.83363186  0.95146742  0.41880968  1  0  -0.087894  0  3.71946  0  0  -0.112406  0  3.972522  0  0  -0.112023  0  3.989072  0  0  -0.091572  -0.112768  0  3.961932  0
C  C33  1  0.16637694  0.04854036  0.58118060  1  0  -0.087701  0  3.719377  0  0  -0.112186  0  3.972463  0  0  -0.111811  0  3.989021  0  0  -0.091543  -0.11254  0  3.961874  0
S  S34  1  0.36800712  0.38877300  0.77592798  1  0  -0.320147  0  2.318381  0  0  -0.297635  0  2.68373  0  0  -0.314177  0  2.671797  0  0  -0.176861  -0.286684  0  2.69197  0
S  S35  1  0.63200566  0.61123436  0.22407705  1  0  -0.320152  0  2.318581  0  0  -0.297581  0  2.683975  0  0  -0.314112  0  2.672032  0  0  -0.17687  -0.286639  0  2.692215  0
S  S36  1  0.72653423  0.27537585  0.61088441  1  0  -0.328029  0  2.360356  0  0  -0.312436  0  2.749533  0  0  -0.326389  0  2.736162  0  0  -0.191462  -0.303683  0  2.757766  0
S  S37  1  0.27347283  0.72462294  0.38910542  1  0  -0.327969  0  2.360461  0  0  -0.312448  0  2.749623  0  0  -0.326397  0  2.736249  0  0  -0.19152  -0.303692  0  2.757852  0
I  I38  1  0.27776506  0.34700650  0.39033478  1  0  -0.455657  0  1.470318  0  0  -0.402719  0  1.832553  0  0  -0.422136  0  1.802562  0  0  -0.204591  -0.387033  0  1.85185  0
I  I39  1  0.72223218  0.65298807  0.60965594  1  0  -0.455701  0  1.470345  0  0  -0.402745  0  1.832585  0  0  -0.422161  0  1.802596  0  0  -0.204601  -0.387055  0  1.85188  0
N  N40  1  0.16449299  0.53867234  0.68482481  1  0  -0.568633  0  3.20706  0  0  -0.524008  0  3.432596  0  0  -0.544119  0  3.429341  0  0  -0.546465  -0.510652  0  3.434806  0
N  N41  1  0.83549880  0.46132672  0.31517646  1  0  -0.568776  0  3.206603  0  0  -0.524074  0  3.432248  0  0  -0.544207  0  3.42898  0  0  -0.546398  -0.510712  0  3.434452  0
N  N42  1  0.58909217  0.12580786  0.39513877  1  0  -0.575169  0  3.181264  0  0  -0.533024  0  3.397901  0  0  -0.552044  0  3.394054  0  0  -0.546335  -0.520385  0  3.400756  0
N  N43  1  0.41087069  0.87418794  0.60485186  1  0  -0.574688  0  3.182007  0  0  -0.532578  0  3.398547  0  0  -0.551594  0  3.394708  0  0  -0.54615  -0.519937  0  3.401393  0
