# generated using pymatgen
data_ZnH29C26NO10
_symmetry_space_group_name_H-M   'P 1'
_cell_length_a   10.89509067
_cell_length_b   14.08305778
_cell_length_c   15.24713035
_cell_angle_alpha   89.71283146
_cell_angle_beta   91.10894230
_cell_angle_gamma   89.84215068
_symmetry_Int_Tables_number   1
_chemical_formula_structural   ZnH29C26NO10
_chemical_formula_sum   'Zn2 H58 C52 N2 O20'
_cell_volume   2338.98454371
_cell_formula_units_Z   2
loop_
 _symmetry_equiv_pos_site_id
 _symmetry_equiv_pos_as_xyz
  1  'x, y, z'
loop_
 _atom_site_type_symbol
 _atom_site_label
 _atom_site_symmetry_multiplicity
 _atom_site_fract_x
 _atom_site_fract_y
 _atom_site_fract_z
 _atom_site_occupancy
 _atom_site_pbe_bader_charge
 _atom_site_pbe_bader_spin_density
 _atom_site_pbe_cm5_charge
 _atom_site_pbe_ddec_charge
 _atom_site_pbe_ddec_spin_density
 _atom_site_pbe_ddec_sum_bond_order
 _atom_site_pbe_magmom
Zn  Zn0  1  0.50109135  0.40094417  0.49864219  1  1.288107  0  0.680595  0.823411  0  2.440326  0
Zn  Zn1  1  0.50644526  0.60725995  0.50250336  1  1.309823  0  0.684593  0.878752  0  2.341101  0
H  H2  1  0.11258337  0.65894891  0.52148737  1  0.100884  0  0.100807  0.104238  0  1.012261  0
H  H3  1  0.88196320  0.65156138  0.51070792  1  0.098875  0  0.102238  0.108112  0  1.018081  0
H  H4  1  0.44645494  0.07359240  0.63625374  1  0.082035  0  0.116051  0.125218  0  0.974638  0
H  H5  1  0.54133598  0.07162629  0.36252055  1  0.063335  0  0.115284  0.123053  0  0.976705  0
H  H6  1  0.44544707  0.25245318  0.62780477  1  0.152779  0  0.129441  0.106085  0  0.991515  0
H  H7  1  0.54002362  0.25074084  0.36683214  1  0.141637  0  0.12891  0.105079  0  0.987492  0
H  H8  1  0.36574160  0.38181711  0.22290783  1  0.092816  0  0.111176  0.130774  0  0.989018  0
H  H9  1  0.58815798  0.36789464  0.78921615  1  0.108005  0  0.107511  0.122437  0  1.008087  0
H  H10  1  0.57946505  0.63320546  0.05673816  1  0.061608  0  0.096876  0.106447  0  1.040454  0
H  H11  1  0.37972402  0.63837067  0.93126631  1  0.053858  0  0.09725  0.106617  0  1.038615  0
H  H12  1  0.72872048  0.25496148  0.57757770  1  0.054873  0  0.093298  0.058048  0  1.016275  0
H  H13  1  0.77267997  0.34632173  0.65128250  1  0.017209  0  0.091847  0.058654  0  0.980707  0
H  H14  1  0.84177163  0.22039482  0.76239967  1  0.029459  0  0.085937  0.117053  0  1.003609  0
H  H15  1  0.68268184  0.21131221  0.73473336  1  0.01681  0  0.087122  0.116544  0  1.013742  0
H  H16  1  0.78925518  0.13073010  0.68868101  1  0.004901  0  0.08481  0.117415  0  1.01824  0
H  H17  1  0.06861104  0.14939849  0.43681576  1  0.020863  0  0.089609  0.04403  0  1.002193  0
H  H18  1  0.22677491  0.16125977  0.46801735  1  0.048192  0  0.087335  0.044043  0  1.01984  0
H  H19  1  0.27368445  0.21738196  0.31480884  1  0.028244  0  0.088905  0.124902  0  1.005527  0
H  H20  1  0.21350349  0.10009505  0.31501943  1  0.029649  0  0.083943  0.115015  0  1.025563  0
H  H21  1  0.11797371  0.19805402  0.28250255  1  0.009778  0  0.085855  0.117402  0  1.004409  0
H  H22  1  0.94789518  0.33133552  0.34908873  1  0.075503  0  0.091997  0.090561  0  1.021062  0
H  H23  1  0.79258217  0.35900813  0.37980751  1  0.052845  0  0.091494  0.09976  0  1.021328  0
H  H24  1  0.82704415  0.24789365  0.32945118  1  0.045706  0  0.094469  0.094807  0  0.988163  0
H  H25  1  0.22365012  0.26592804  0.71008464  1  0.041105  0  0.09602  0.096453  0  0.986428  0
H  H26  1  0.08506020  0.33227100  0.69313131  1  0.059476  0  0.089598  0.086186  0  1.024184  0
H  H27  1  0.23079984  0.38104176  0.66076715  1  0.060031  0  0.089951  0.093505  0  1.016937  0
H  H28  1  0.22321119  0.46886015  0.98792029  1  0.011784  0  0.08969  0.045094  0  0.996972  0
H  H29  1  0.15901234  0.41189177  0.08142173  1  0.026156  0  0.090366  0.044216  0  0.972798  0
H  H30  1  0.15764405  0.25627651  0.99800500  1  0.043123  0  0.090631  0.122643  0  0.996424  0
H  H31  1  0.06741373  0.34520465  0.94355654  1  0.010657  0  0.089504  0.117284  0  1.007494  0
H  H32  1  0.21624784  0.31666792  0.90470570  1  0.033868  0  0.093272  0.129603  0  0.994151  0
H  H33  1  0.72638379  0.44193588  0.01158535  1  0.047737  0  0.09049  0.045664  0  0.985884  0
H  H34  1  0.76595214  0.36939344  0.92046858  1  0.021585  0  0.089759  0.041919  0  0.983243  0
H  H35  1  0.74110036  0.22319759  0.01574030  1  0.022581  0  0.090124  0.122811  0  0.996334  0
H  H36  1  0.85454031  0.30148144  0.05980531  1  0.029596  0  0.090187  0.119463  0  1.006984  0
H  H37  1  0.70563671  0.29747539  0.10632830  1  0.049138  0  0.094073  0.131431  0  0.989947  0
H  H38  1  0.70663325  0.76277796  0.23785450  1  0.073501  0  0.109866  0.114983  0  0.970054  0
H  H39  1  0.60191766  0.76206659  0.14543332  1  0.049783  0  0.094009  0.085974  0  0.996349  0
H  H40  1  0.73473977  0.68609041  0.14676092  1  0.054776  0  0.097227  0.092437  0  0.988703  0
H  H41  1  0.29820421  0.77083114  0.73654711  1  0.0944  0  0.109238  0.114752  0  0.970978  0
H  H42  1  0.38206397  0.76577504  0.83901245  1  0.043329  0  0.09381  0.085735  0  0.996528  0
H  H43  1  0.24366446  0.69789327  0.82433675  1  0.060101  0  0.098117  0.094013  0  0.987911  0
H  H44  1  0.12461482  0.97167468  0.41552290  1  0.089015  0  0.110248  0.118334  0  0.980475  0
H  H45  1  0.19520277  0.97302334  0.52264864  1  0.061837  0  0.098701  0.098363  0  0.987915  0
H  H46  1  0.17083144  0.86159730  0.46689396  1  0.084786  0  0.100215  0.100155  0  1.016179  0
H  H47  1  0.78595318  0.99837384  0.48109637  1  0.05757  0  0.09697  0.09681  0  0.991173  0
H  H48  1  0.83468015  0.88817768  0.53226630  1  0.09158  0  0.097982  0.097128  0  1.003988  0
H  H49  1  0.86104110  0.99998716  0.58647758  1  0.047551  0  0.112337  0.122784  0  0.972931  0
H  H50  1  0.40567200  0.72754990  0.29714586  1  0.07961  0  0.100732  0.07086  0  1.01419  0
H  H51  1  0.30208620  0.82770516  0.30219606  1  0.064453  0  0.093459  0.051101  0  1.004168  0
H  H52  1  0.20643371  0.68862906  0.22204628  1  0.026899  0  0.092169  0.122529  0  0.995204  0
H  H53  1  0.23095694  0.61660531  0.31712019  1  0.083284  0  0.098157  0.144668  0  0.990461  0
H  H54  1  0.12548129  0.71384456  0.31984945  1  0.033066  0  0.087438  0.11634  0  1.003582  0
H  H55  1  0.59448148  0.72718163  0.70312960  1  0.075384  0  0.100528  0.070798  0  1.013271  0
H  H56  1  0.69312963  0.83026575  0.70402994  1  0.040193  0  0.093625  0.051326  0  1.001268  0
H  H57  1  0.79001374  0.69235628  0.78597697  1  0.028682  0  0.091917  0.121535  0  0.994801  0
H  H58  1  0.77526615  0.62137460  0.68995160  1  0.080171  0  0.09621  0.141049  0  0.99705  0
H  H59  1  0.87659726  0.72094132  0.69140801  1  0.016177  0  0.087585  0.116367  0  1.002648  0
C  C60  1  0.48503419  0.50026167  0.33103250  1  1.600037  0  0.218412  0.615481  0  4.166154  0
C  C61  1  0.51246867  0.49555345  0.67070894  1  1.612109  0  0.213465  0.607315  0  4.179833  0
C  C62  1  0.53415346  0.58110161  0.18619161  1  0.502712  0  0.079694  0.223604  0  4.050277  0
C  C63  1  0.43962006  0.57971733  0.80793526  1  0.438874  0  0.081563  0.227299  0  4.045532  0
C  C64  1  0.52985047  0.58039557  0.09445059  1  -0.087753  0  -0.119327  -0.278152  0  4.029054  0
C  C65  1  0.42716694  0.58034497  0.89913034  1  0.015554  0  -0.118596  -0.278545  0  4.025455  0
C  C66  1  0.46655531  0.50924846  0.04827860  1  0.038595  0  -0.015635  0.005414  0  4.030177  0
C  C67  1  0.47442325  0.50611880  0.95155485  1  -0.002538  0  -0.013766  0.013475  0  4.022775  0
C  C68  1  0.40526973  0.90193205  0.45802619  1  0.577475  0  0.072127  0.050374  0  4.07995  0
C  C69  1  0.59295869  0.90529794  0.54501028  1  0.482748  0  0.072109  0.048953  0  4.082974  0
C  C70  1  0.41366599  0.80221195  0.45757790  1  1.119369  0  0.210109  0.302356  0  4.092666  0
C  C71  1  0.59201243  0.80540784  0.54555806  1  1.195735  0  0.209214  0.301125  0  4.098929  0
C  C72  1  0.49767323  0.95405937  0.50089358  1  0.002714  0  -0.003615  -0.073026  0  4.036881  0
C  C73  1  0.46718787  0.11009820  0.57519272  1  -0.00876  0  -0.072722  -0.170379  0  3.932053  0
C  C74  1  0.52038555  0.10908691  0.42276938  1  0.129081  0  -0.074103  -0.171063  0  3.936063  0
C  C75  1  0.46644840  0.20860778  0.57130525  1  0.516498  0  0.067533  0.114572  0  3.907422  0
C  C76  1  0.51972891  0.20766264  0.42438146  1  0.396432  0  0.066623  0.111193  0  3.906199  0
C  C77  1  0.49481396  0.05899753  0.49970156  1  -0.059899  0  0.019342  0.143241  0  4.000322  0
C  C78  1  0.27233241  0.51173458  0.51704926  1  1.614538  0  0.211905  0.580226  0  4.202033  0
C  C79  1  0.73767028  0.50136835  0.49858573  1  1.577002  0  0.212562  0.581752  0  4.202948  0
C  C80  1  0.07254865  0.42187720  0.52018957  1  0.011333  0  -0.008922  -0.043353  0  3.911653  0
C  C81  1  0.94475123  0.41679418  0.51906103  1  -0.012064  0  -0.011676  -0.06214  0  3.868444  0
C  C82  1  0.13600701  0.50784294  0.52062372  1  -0.098701  0  -0.005822  -0.024109  0  3.94062  0
C  C83  1  0.87367704  0.49992378  0.51193037  1  -0.027421  0  -0.009345  -0.034406  0  3.938292  0
C  C84  1  0.06479800  0.59101010  0.52024169  1  0.020669  0  -0.083305  -0.098352  0  3.97683  0
C  C85  1  0.93703740  0.58685447  0.51448611  1  -0.063771  0  -0.082951  -0.096292  0  3.972365  0
C  C86  1  0.94375046  0.30652470  0.52367692  1  0.988824  0  0.160559  0.26744  0  3.897877  0
C  C87  1  0.09343961  0.31486659  0.51724809  1  1.074088  0  0.16247  0.281976  0  3.896917  0
C  C88  1  0.40324264  0.43935205  0.09526685  1  0.396348  0  0.06936  0.180539  0  4.07916  0
C  C89  1  0.53442548  0.42983772  0.91139396  1  0.475968  0  0.068343  0.178167  0  4.075798  0
C  C90  1  0.41098627  0.43825049  0.18661445  1  0.006264  0  -0.091963  -0.190662  0  3.991655  0
C  C91  1  0.54358561  0.42795363  0.82045513  1  -0.037225  0  -0.095123  -0.194773  0  4.009571  0
C  C92  1  0.47646670  0.50750109  0.23300059  1  0.038891  0  -0.02469  -0.114685  0  3.969043  0
C  C93  1  0.49804635  0.50189219  0.76789861  1  0.020747  0  -0.025356  -0.114546  0  3.973381  0
C  C94  1  0.79129802  0.27234018  0.63238794  1  0.448992  0  -0.079623  0.094164  0  3.899804  0
C  C95  1  0.77586328  0.20473413  0.70894709  1  -0.038181  0  -0.247712  -0.392907  0  3.993069  0
C  C96  1  0.15441301  0.18750846  0.42259760  1  0.438413  0  -0.078037  0.095307  0  3.917281  0
C  C97  1  0.19162439  0.17486774  0.32802668  1  -0.027101  0  -0.249161  -0.397351  0  3.983493  0
C  C98  1  0.86185309  0.30249934  0.37456785  1  0.362508  0  -0.152842  -0.168217  0  3.946484  0
C  C99  1  0.17545226  0.31604859  0.66597839  1  0.375874  0  -0.149401  -0.161101  0  3.95738  0
C  C100  1  0.21603145  0.40045922  0.02314271  1  0.451753  0  -0.069502  0.090305  0  3.937949  0
C  C101  1  0.16135480  0.32502126  0.96384713  1  -0.047862  0  -0.243558  -0.390101  0  3.983188  0
C  C102  1  0.71375691  0.37110535  0.98195848  1  0.42158  0  -0.068635  0.094165  0  3.935854  0
C  C103  1  0.75601198  0.29354339  0.04475568  1  -0.056608  0  -0.244416  -0.394921  0  3.985353  0
C  C104  1  0.66323449  0.71814813  0.18749914  1  0.378148  0  -0.133831  -0.167804  0  3.954284  0
C  C105  1  0.32608095  0.72475751  0.79160491  1  0.362711  0  -0.133532  -0.168029  0  3.951609  0
C  C106  1  0.19303610  0.93718040  0.45862275  1  0.309192  0  -0.135633  -0.176379  0  3.886842  0
C  C107  1  0.79820182  0.95992263  0.54373393  1  0.356734  0  -0.134203  -0.170185  0  3.883642  0
C  C108  1  0.31785054  0.75340461  0.32217517  1  0.363856  0  -0.068242  0.083789  0  3.863329  0
C  C109  1  0.21348574  0.68935631  0.29406260  1  -0.067216  0  -0.243185  -0.386781  0  3.967183  0
C  C110  1  0.68285128  0.75625665  0.68232024  1  0.396617  0  -0.067707  0.085323  0  3.861154  0
C  C111  1  0.78795440  0.69405060  0.71386644  1  -0.055864  0  -0.243719  -0.385411  0  3.966934  0
N  N112  1  0.50467552  0.75635958  0.50158889  1  -1.246403  0  -0.315167  -0.348573  0  3.468714  0
N  N113  1  0.49354403  0.25607515  0.49748856  1  -1.238664  0  -0.318499  -0.196959  0  3.515082  0
O  O114  1  0.50939909  0.41845810  0.36270405  1  -1.171832  0  -0.317502  -0.552017  0  2.299388  0
O  O115  1  0.49080208  0.41504097  0.63621772  1  -1.174015  0  -0.314488  -0.554521  0  2.309305  0
O  O116  1  0.46488311  0.57551703  0.37406477  1  -1.16485  0  -0.307771  -0.553215  0  2.397724  0
O  O117  1  0.54758832  0.56989031  0.63104144  1  -1.167431  0  -0.309597  -0.55301  0  2.383976  0
O  O118  1  0.32319071  0.43492448  0.49326627  1  -1.156687  0  -0.308865  -0.525368  0  2.402585  0
O  O119  1  0.68321919  0.42228857  0.50919100  1  -1.164496  0  -0.308748  -0.543717  0  2.420335  0
O  O120  1  0.32518683  0.58929952  0.53631811  1  -1.161514  0  -0.314669  -0.543681  0  2.346853  0
O  O121  1  0.68804253  0.57998946  0.47710973  1  -1.154609  0  -0.316574  -0.542835  0  2.343436  0
O  O122  1  0.91650721  0.26432047  0.60394209  1  -1.043504  0  -0.212682  -0.275457  0  2.519247  0
O  O123  1  0.13717284  0.28781646  0.43532518  1  -1.058402  0  -0.211356  -0.266917  0  2.492438  0
O  O124  1  0.88137317  0.25516570  0.45719979  1  -1.054979  0  -0.230699  -0.252579  0  2.533717  0
O  O125  1  0.16441060  0.26919373  0.58323385  1  -1.057327  0  -0.225837  -0.246763  0  2.547906  0
O  O126  1  0.33690074  0.36971791  0.05172458  1  -1.065435  0  -0.21017  -0.242752  0  2.490859  0
O  O127  1  0.58509917  0.35708726  0.96181516  1  -1.071114  0  -0.210458  -0.243897  0  2.494365  0
O  O128  1  0.59685368  0.64789423  0.23412280  1  -1.072595  0  -0.184193  -0.147939  0  2.589879  0
O  O129  1  0.39463150  0.64981412  0.75374396  1  -1.076627  0  -0.181725  -0.144588  0  2.600956  0
O  O130  1  0.30967324  0.94853963  0.41615965  1  -1.070498  0  -0.202764  -0.177298  0  2.576189  0
O  O131  1  0.68309567  0.95501332  0.58909571  1  -1.071683  0  -0.205187  -0.179599  0  2.568375  0
O  O132  1  0.32688541  0.74832733  0.41818292  1  -1.082734  0  -0.178541  -0.219509  0  2.547805  0
O  O133  1  0.68208736  0.75464730  0.58603629  1  -1.083401  0  -0.181603  -0.225461  0  2.523493  0
