# generated using pymatgen
data_ZnH8C19(NO3)2
_symmetry_space_group_name_H-M   'P 1'
_cell_length_a   5.59763221
_cell_length_b   14.68783971
_cell_length_c   27.71247541
_cell_angle_alpha   89.99985022
_cell_angle_beta   90.00009901
_cell_angle_gamma   100.17071568
_symmetry_Int_Tables_number   1
_chemical_formula_structural   ZnH8C19(NO3)2
_chemical_formula_sum   'Zn4 H32 C76 N8 O24'
_cell_volume   2242.63661154
_cell_formula_units_Z   4
loop_
 _symmetry_equiv_pos_site_id
 _symmetry_equiv_pos_as_xyz
  1  'x, y, z'
loop_
 _atom_site_type_symbol
 _atom_site_label
 _atom_site_symmetry_multiplicity
 _atom_site_fract_x
 _atom_site_fract_y
 _atom_site_fract_z
 _atom_site_occupancy
 _atom_site_pbe_bader_charge
 _atom_site_pbe_bader_spin_density
 _atom_site_pbe_cm5_charge
 _atom_site_pbe_ddec_charge
 _atom_site_pbe_ddec_spin_density
 _atom_site_pbe_ddec_sum_bond_order
 _atom_site_pbe_magmom
Zn  Zn0  1  0.96095524  0.59003593  0.97669020  1  1.318131  0  0.701201  0.8779  0  2.29726  0
Zn  Zn1  1  0.53906206  0.90996555  0.47669019  1  1.318224  0  0.701192  0.877875  0  2.297247  0
Zn  Zn2  1  0.03904584  0.40996406  0.02330980  1  1.318081  0  0.701219  0.877915  0  2.297205  0
Zn  Zn3  1  0.46094796  0.09003445  0.52330982  1  1.318093  0  0.701218  0.877936  0  2.297198  0
H  H4  1  0.21802848  0.75932267  0.42767007  1  0.131189  0  0.129962  0.105772  0  0.969631  0
H  H5  1  0.19090169  0.69193063  0.34371515  1  0.13478  0  0.119395  0.147697  0  1.002523  0
H  H6  1  0.93641881  0.82424571  0.32235297  1  0.148152  0  0.118141  0.14236  0  1.000662  0
H  H7  1  0.93617387  0.88372674  0.40733848  1  0.153454  0  0.118767  0.100623  0  1.054245  0
H  H8  1  0.93367985  0.53165220  0.22953577  1  0.116837  0  0.113623  0.118693  0  0.984001  0
H  H9  1  0.93142347  0.47867613  0.14351967  1  0.137062  0  0.108641  0.116962  0  1.002893  0
H  H10  1  0.11940449  0.75398773  0.08889087  1  0.111644  0  0.114842  0.127019  0  0.977878  0
H  H11  1  0.14962895  0.81444247  0.17413656  1  0.127787  0  0.114938  0.118373  0  0.978868  0
H  H12  1  0.28197052  0.74067793  0.92766946  1  0.131194  0  0.129961  0.105798  0  0.969645  0
H  H13  1  0.30909383  0.80807173  0.84371517  1  0.134779  0  0.119357  0.147658  0  1.002555  0
H  H14  1  0.56357930  0.67575577  0.82235381  1  0.14816  0  0.118128  0.142358  0  1.000695  0
H  H15  1  0.56382626  0.61627367  0.90733868  1  0.153231  0  0.118754  0.100593  0  1.054242  0
H  H16  1  0.56631556  0.96834901  0.72953368  1  0.116842  0  0.113643  0.118748  0  0.984024  0
H  H17  1  0.56857787  0.02132572  0.64351712  1  0.137004  0  0.108665  0.117014  0  1.002881  0
H  H18  1  0.38059134  0.74601230  0.58889028  1  0.111635  0  0.114843  0.127043  0  0.977858  0
H  H19  1  0.35037586  0.68555995  0.67413712  1  0.127806  0  0.114964  0.118391  0  0.978865  0
H  H20  1  0.78196725  0.24067733  0.57232993  1  0.131196  0  0.129957  0.105814  0  0.969672  0
H  H21  1  0.80909468  0.30807075  0.65628414  1  0.134797  0  0.119379  0.147686  0  1.002532  0
H  H22  1  0.06357902  0.17575498  0.67764596  1  0.148151  0  0.118105  0.142321  0  1.00074  0
H  H23  1  0.06382543  0.11627326  0.59266117  1  0.153224  0  0.118771  0.100618  0  1.05424  0
H  H24  1  0.06632009  0.46834918  0.77046424  1  0.116826  0  0.113632  0.118732  0  0.98396  0
H  H25  1  0.06857793  0.52132456  0.85648034  1  0.137052  0  0.108636  0.116948  0  1.002898  0
H  H26  1  0.88059156  0.24601296  0.91111058  1  0.111619  0  0.114828  0.127022  0  0.977832  0
H  H27  1  0.85037309  0.18555960  0.82586453  1  0.127822  0  0.114969  0.118425  0  0.978823  0
H  H28  1  0.71803089  0.25932276  0.07232982  1  0.131154  0  0.129957  0.1058  0  0.96964  0
H  H29  1  0.69090400  0.19192896  0.15628411  1  0.134774  0  0.119381  0.147691  0  1.002533  0
H  H30  1  0.43642000  0.32424423  0.17764620  1  0.148155  0  0.118115  0.142341  0  1.000731  0
H  H31  1  0.43617515  0.38372702  0.09266133  1  0.153225  0  0.11876  0.1006  0  1.054263  0
H  H32  1  0.43367889  0.03164822  0.27046597  1  0.116843  0  0.11367  0.118784  0  0.983969  0
H  H33  1  0.43141689  0.97867220  0.35648216  1  0.136925  0  0.108677  0.117032  0  1.002884  0
H  H34  1  0.61940974  0.25398770  0.41111008  1  0.111642  0  0.114836  0.127026  0  0.977834  0
H  H35  1  0.64962637  0.31443867  0.32586324  1  0.127828  0  0.114982  0.118428  0  0.978851  0
C  C36  1  0.37312286  0.77063866  0.40325221  1  0.488305  0  0.058198  0.115291  0  3.917857  0
C  C37  1  0.35833988  0.73394169  0.35690055  1  -0.000765  0  -0.072413  -0.197643  0  3.909338  0
C  C38  1  0.56216460  0.75482887  0.32729837  1  0.33502  0  0.116298  0.249438  0  4.001817  0
C  C39  1  0.77496288  0.80806232  0.34492221  1  0.012301  0  -0.073883  -0.197953  0  3.915033  0
C  C40  1  0.77499781  0.84123130  0.39188407  1  0.468791  0  0.050514  0.107862  0  3.904703  0
C  C41  1  0.70639573  0.65924427  0.26607658  1  1.30652  0  0.247077  0.455882  0  4.085582  0
C  C42  1  0.69137161  0.62628188  0.21581981  1  -0.047504  0  -0.016425  -0.093162  0  4.024639  0
C  C43  1  0.54189982  0.66145044  0.18160376  1  -0.026862  0  0.004209  0.036257  0  3.984586  0
C  C44  1  0.39917388  0.72775897  0.19588210  1  0.002371  0  -0.016745  -0.092521  0  4.028698  0
C  C45  1  0.39820202  0.75937646  0.24631821  1  1.309858  0  0.246301  0.454337  0  4.084716  0
C  C46  1  0.82449432  0.55915810  0.20246633  1  -0.021131  0  -0.063028  -0.050121  0  3.946489  0
C  C47  1  0.82017321  0.52884395  0.15454353  1  -0.034285  0  -0.077166  -0.093459  0  3.946137  0
C  C48  1  0.68345099  0.56435453  0.11962130  1  0.00044  0  0.006953  -0.036879  0  3.888046  0
C  C49  1  0.53254004  0.62910349  0.13269368  1  0.018308  0  0.007631  0.037107  0  3.922617  0
C  C50  1  0.36967829  0.66210531  0.10010578  1  0.001153  0  0.010245  -0.025609  0  3.869785  0
C  C51  1  0.24179150  0.73027688  0.11473883  1  -0.020928  0  -0.076576  -0.098944  0  3.948923  0
C  C52  1  0.25613801  0.76322270  0.16230692  1  -0.027246  0  -0.06515  -0.056099  0  3.951126  0
C  C53  1  0.72946083  0.53769943  0.06846026  1  1.607027  0  0.214968  0.589539  0  4.192341  0
C  C54  1  0.28820518  0.61460299  0.05323161  1  1.574385  0  0.213945  0.595902  0  4.188165  0
C  C55  1  0.12687840  0.72936342  0.90325228  1  0.488364  0  0.05822  0.115234  0  3.917928  0
C  C56  1  0.14165718  0.76605991  0.85690057  1  -0.000759  0  -0.072377  -0.197586  0  3.909294  0
C  C57  1  0.93783176  0.74517259  0.82729817  1  0.335036  0  0.116282  0.249356  0  4.001686  0
C  C58  1  0.72503538  0.69193907  0.84492272  1  0.012278  0  -0.073925  -0.198019  0  3.915131  0
C  C59  1  0.72500254  0.65876987  0.89188391  1  0.469025  0  0.050553  0.107935  0  3.904691  0
C  C60  1  0.79359958  0.84075608  0.76607511  1  1.306521  0  0.247027  0.455622  0  4.085541  0
C  C61  1  0.80861885  0.87371662  0.71581722  1  -0.047346  0  -0.016376  -0.092997  0  4.024582  0
C  C62  1  0.95809578  0.83854822  0.68160271  1  -0.0269  0  0.004265  0.036246  0  3.984638  0
C  C63  1  0.10082475  0.77224128  0.69588102  1  0.002378  0  -0.016774  -0.092533  0  4.028834  0
C  C64  1  0.10179254  0.74062564  0.74631681  1  1.309786  0  0.246301  0.454334  0  4.084498  0
C  C65  1  0.67549816  0.94084116  0.70246432  1  -0.021194  0  -0.06305  -0.050274  0  3.946609  0
C  C66  1  0.67982707  0.97115759  0.65454112  1  -0.034378  0  -0.077261  -0.093542  0  3.94635  0
C  C67  1  0.81655506  0.93564856  0.61962007  1  0.000446  0  0.007027  -0.036734  0  3.888116  0
C  C68  1  0.96745977  0.87089746  0.63269295  1  0.018308  0  0.007581  0.036978  0  3.922572  0
C  C69  1  0.13032297  0.83789468  0.60010570  1  0.001137  0  0.010229  -0.025593  0  3.869805  0
C  C70  1  0.25820775  0.76972235  0.61473817  1  -0.020906  0  -0.076562  -0.098925  0  3.948845  0
C  C71  1  0.24386073  0.73677840  0.66230702  1  -0.027244  0  -0.065165  -0.056126  0  3.951162  0
C  C72  1  0.77054897  0.96230112  0.56845825  1  1.607157  0  0.214999  0.589722  0  4.192037  0
C  C73  1  0.21181479  0.88539582  0.55323257  1  1.573996  0  0.213899  0.595736  0  4.188373  0
C  C74  1  0.62687529  0.22936272  0.59674707  1  0.48879  0  0.058146  0.115124  0  3.918038  0
C  C75  1  0.64165469  0.26605969  0.64309874  1  -0.001248  0  -0.072354  -0.197553  0  3.909357  0
C  C76  1  0.43783177  0.24517251  0.67270091  1  0.335032  0  0.116269  0.249329  0  4.001832  0
C  C77  1  0.22503170  0.19193907  0.65507744  1  0.012266  0  -0.073862  -0.197918  0  3.915146  0
C  C78  1  0.22500035  0.15877008  0.60811558  1  0.469016  0  0.050528  0.107896  0  3.904695  0
C  C79  1  0.29360031  0.34075642  0.73392342  1  1.306535  0  0.247066  0.455806  0  4.085682  0
C  C80  1  0.30863044  0.37372019  0.78418055  1  -0.047544  0  -0.016412  -0.093206  0  4.024659  0
C  C81  1  0.45810337  0.33855025  0.81839588  1  -0.026866  0  0.004194  0.03629  0  3.984607  0
C  C82  1  0.60082784  0.27224241  0.80411827  1  0.002328  0  -0.016718  -0.092444  0  4.028641  0
C  C83  1  0.60179760  0.24062423  0.75368216  1  1.309864  0  0.246297  0.454217  0  4.084677  0
C  C84  1  0.17550740  0.44084328  0.79753404  1  -0.021079  0  -0.063046  -0.05022  0  3.946482  0
C  C85  1  0.17982852  0.47115743  0.84545684  1  -0.034397  0  -0.077216  -0.093445  0  3.946243  0
C  C86  1  0.31655074  0.43564686  0.88037834  1  0.00066  0  0.007054  -0.036794  0  3.888261  0
C  C87  1  0.46745990  0.37089789  0.86730632  1  0.018538  0  0.007649  0.037156  0  3.922582  0
C  C88  1  0.63031807  0.33789607  0.89989494  1  0.000889  0  0.010262  -0.025613  0  3.86983  0
C  C89  1  0.75820665  0.26972451  0.88526189  1  -0.021111  0  -0.076531  -0.098874  0  3.948838  0
C  C90  1  0.74386404  0.23677938  0.83769345  1  -0.026973  0  -0.065202  -0.056248  0  3.951186  0
C  C91  1  0.27053572  0.46229849  0.93154047  1  1.606904  0  0.214943  0.589531  0  4.192429  0
C  C92  1  0.71179412  0.38539701  0.94676876  1  1.574362  0  0.213917  0.595837  0  4.1883  0
C  C93  1  0.87312447  0.27063658  0.09674773  1  0.488349  0  0.058188  0.115206  0  3.917908  0
C  C94  1  0.85834211  0.23394008  0.14309944  1  -0.000766  0  -0.072389  -0.197621  0  3.909367  0
C  C95  1  0.06216721  0.25482671  0.17270148  1  0.33502  0  0.116277  0.249382  0  4.001825  0
C  C96  1  0.27496539  0.30806024  0.15507764  1  0.01229  0  -0.073849  -0.197929  0  3.915149  0
C  C97  1  0.27499854  0.34123012  0.10811574  1  0.469039  0  0.050542  0.107891  0  3.904703  0
C  C98  1  0.20639761  0.15924323  0.23392417  1  1.306531  0  0.247006  0.455617  0  4.085519  0
C  C99  1  0.19137527  0.12627992  0.28418170  1  -0.047875  0  -0.016352  -0.093014  0  4.024516  0
C  C100  1  0.04189834  0.16144832  0.31839657  1  -0.026848  0  0.004173  0.036189  0  3.984708  0
C  C101  1  0.89917358  0.22775665  0.30411863  1  0.002369  0  -0.016755  -0.092477  0  4.028693  0
C  C102  1  0.89820643  0.25937367  0.25368247  1  1.309827  0  0.246283  0.454247  0  4.084524  0
C  C103  1  0.32449450  0.05915608  0.29753533  1  -0.020674  0  -0.063066  -0.050299  0  3.946535  0
C  C104  1  0.32016770  0.02884033  0.34545889  1  -0.034544  0  -0.0773  -0.09356  0  3.946389  0
C  C105  1  0.18344360  0.06435006  0.38037994  1  0.000693  0  0.007056  -0.036741  0  3.888178  0
C  C106  1  0.03253889  0.12910116  0.36730669  1  0.018269  0  0.007646  0.03703  0  3.922602  0
C  C107  1  0.86968137  0.16210463  0.39989467  1  0.001143  0  0.010259  -0.025521  0  3.869815  0
C  C108  1  0.74179480  0.23027695  0.38526184  1  -0.020882  0  -0.076556  -0.098901  0  3.948913  0
C  C109  1  0.75613646  0.26322091  0.33769335  1  -0.027233  0  -0.065196  -0.056215  0  3.951176  0
C  C110  1  0.22945212  0.03769888  0.43154212  1  1.606771  0  0.215054  0.589796  0  4.192005  0
C  C111  1  0.78819912  0.11460487  0.44676924  1  1.574148  0  0.213873  0.595761  0  4.188389  0
N  N112  1  0.57641203  0.82409236  0.42027018  1  -1.266783  0  -0.32778  -0.232835  0  3.53547  0
N  N113  1  0.55321355  0.72254279  0.27841067  1  -1.179567  0  -0.231282  -0.23073  0  3.559898  0
N  N114  1  0.92359029  0.67590868  0.92027006  1  -1.266837  0  -0.32777  -0.232782  0  3.535443  0
N  N115  1  0.94678038  0.77745820  0.77841042  1  -1.179544  0  -0.231236  -0.230521  0  3.559514  0
N  N116  1  0.42358580  0.17590833  0.57972947  1  -1.266799  0  -0.327762  -0.232803  0  3.535497  0
N  N117  1  0.44678281  0.27745859  0.72158934  1  -1.179526  0  -0.231238  -0.230509  0  3.559622  0
N  N118  1  0.07641290  0.32409201  0.07972922  1  -1.266764  0  -0.327762  -0.232771  0  3.53542  0
N  N119  1  0.05321892  0.22254180  0.22158923  1  -1.179565  0  -0.231285  -0.230575  0  3.559629  0
O  O120  1  0.76085835  0.60217741  0.03705811  1  -1.145217  0  -0.303733  -0.522388  0  2.315672  0
O  O121  1  0.75535265  0.45476695  0.06176081  1  -1.185392  0  -0.310779  -0.55998  0  2.402112  0
O  O122  1  0.23796178  0.66370523  0.01844145  1  -1.163672  0  -0.313586  -0.528412  0  2.274852  0
O  O123  1  0.24833181  0.52626741  0.05548083  1  -1.146585  0  -0.309439  -0.5708  0  2.377754  0
O  O124  1  0.27517382  0.81558399  0.26095704  1  -1.117229  0  -0.278859  -0.456309  0  2.113956  0
O  O125  1  0.83912585  0.63347801  0.29681043  1  -1.120273  0  -0.279021  -0.453181  0  2.106685  0
O  O126  1  0.73916456  0.89782120  0.53705727  1  -1.145248  0  -0.303702  -0.522411  0  2.315619  0
O  O127  1  0.74465613  0.04523319  0.56175684  1  -1.185489  0  -0.310849  -0.56016  0  2.401999  0
O  O128  1  0.26207615  0.83629443  0.51844431  1  -1.163591  0  -0.313507  -0.528211  0  2.274849  0
O  O129  1  0.25167777  0.97373208  0.55548168  1  -1.146495  0  -0.309442  -0.570775  0  2.377868  0
O  O130  1  0.22482734  0.68441666  0.76095721  1  -1.117117  0  -0.278852  -0.456321  0  2.113817  0
O  O131  1  0.66087452  0.86652497  0.79680960  1  -1.120265  0  -0.279022  -0.453084  0  2.106653  0
O  O132  1  0.23914355  0.39782052  0.96294189  1  -1.145255  0  -0.303736  -0.522401  0  2.315824  0
O  O133  1  0.24464843  0.54523305  0.93824028  1  -1.185439  0  -0.310824  -0.560073  0  2.402038  0
O  O134  1  0.76203459  0.33629615  0.98155891  1  -1.163695  0  -0.313589  -0.528379  0  2.274884  0
O  O135  1  0.75166570  0.47373259  0.94451954  1  -1.146613  0  -0.309441  -0.570779  0  2.377743  0
O  O136  1  0.72482222  0.18441670  0.73904296  1  -1.117174  0  -0.278844  -0.456251  0  2.114054  0
O  O137  1  0.16086987  0.36652199  0.70319065  1  -1.120312  0  -0.279059  -0.453187  0  2.106827  0
O  O138  1  0.26084513  0.10217810  0.46294310  1  -1.144964  0  -0.303775  -0.522482  0  2.315682  0
O  O139  1  0.25534042  0.95476473  0.43824388  1  -1.185493  0  -0.310876  -0.560257  0  2.402007  0
O  O140  1  0.73795709  0.16370557  0.48155858  1  -1.163497  0  -0.313543  -0.528301  0  2.274884  0
O  O141  1  0.74832721  0.02626861  0.44451905  1  -1.146573  0  -0.309399  -0.57076  0  2.377843  0
O  O142  1  0.77517195  0.31558334  0.23904280  1  -1.117123  0  -0.278851  -0.456285  0  2.113843  0
O  O143  1  0.33912720  0.13347641  0.20319004  1  -1.120283  0  -0.278992  -0.453051  0  2.106654  0
