# generated using pymatgen
data_GdH27C36N7O8
_symmetry_space_group_name_H-M   'P 1'
_cell_length_a   8.18943799
_cell_length_b   14.90305894
_cell_length_c   36.87784312
_cell_angle_alpha   89.99999902
_cell_angle_beta   90.40074545
_cell_angle_gamma   89.99993482
_symmetry_Int_Tables_number   1
_chemical_formula_structural   GdH27C36N7O8
_chemical_formula_sum   'Gd4 H108 C144 N28 O32'
_cell_volume   4500.74499429
_cell_formula_units_Z   4
loop_
 _symmetry_equiv_pos_site_id
 _symmetry_equiv_pos_as_xyz
  1  'x, y, z'
loop_
 _atom_site_type_symbol
 _atom_site_label
 _atom_site_symmetry_multiplicity
 _atom_site_fract_x
 _atom_site_fract_y
 _atom_site_fract_z
 _atom_site_occupancy
 _atom_site_pbe_bader_charge
 _atom_site_pbe_bader_spin_density
 _atom_site_pbe_cm5_charge
 _atom_site_pbe_ddec_charge
 _atom_site_pbe_ddec_spin_density
 _atom_site_pbe_ddec_sum_bond_order
 _atom_site_pbe_magmom
Gd  Gd0  1  0.16644367  0.09636137  0.48743525  1  2.16869  0  1.464087  2.004245  0  2.213192  0
Gd  Gd1  1  0.83354883  0.90363838  0.51256770  1  2.168663  0  1.464084  2.00423  0  2.213264  0
Gd  Gd2  1  0.66644210  0.90364044  0.98743429  1  2.168626  0  1.464087  2.004195  0  2.213247  0
Gd  Gd3  1  0.33355779  0.09635797  0.01256624  1  2.16858  0  1.464127  2.004294  0  2.213182  0
H  H4  1  0.54484341  0.96321819  0.26230032  1  0.094652  0  0.106496  0.111887  0  0.99639  0
H  H5  1  0.43772859  0.30395424  0.37774476  1  0.05776  0  0.115469  0.128729  0  0.982203  0
H  H6  1  0.65252335  0.28654432  0.37468502  1  0.073764  0  0.105775  0.119287  0  0.997162  0
H  H7  1  0.56255056  0.37331513  0.07431632  1  0.070734  0  0.099336  0.105725  0  1.00654  0
H  H8  1  0.06714447  0.32407907  0.77498995  1  0.026303  0  0.10093  0.095922  0  1.002614  0
H  H9  1  0.41215403  0.34562287  0.56194886  1  0.084701  0  0.102387  0.10301  0  1.039137  0
H  H10  1  0.75893177  0.08129246  0.65627834  1  0.494552  0  0.337103  0.298531  0  0.906008  0
H  H11  1  0.92728637  0.41009940  0.88763818  1  0.106632  0  0.103026  0.117672  0  1.005426  0
H  H12  1  0.41553234  0.94242048  0.47541728  1  0.664998  0  0.304699  0.412336  0  0.9148  0
H  H13  1  0.40533348  0.29954374  0.88964132  1  0.078345  0  0.108349  0.123592  0  0.977975  0
H  H14  1  0.63053230  0.07328341  0.38292035  1  0.033767  0  0.102527  0.113849  0  1.002772  0
H  H15  1  0.91215789  0.65438282  0.06194800  1  0.084762  0  0.102418  0.103032  0  1.039182  0
H  H16  1  0.06255340  0.62668340  0.57431937  1  0.07063  0  0.099301  0.105637  0  1.006569  0
H  H17  1  0.93773599  0.69604539  0.87774409  1  0.057373  0  0.115463  0.128699  0  0.982174  0
H  H18  1  0.67424085  0.68511551  0.49155994  1  0.535956  0  0.312111  0.288673  0  1.010835  0
H  H19  1  0.86945555  0.07328334  0.11707956  1  0.033825  0  0.102567  0.113875  0  1.002798  0
H  H20  1  0.58446509  0.05758128  0.52458352  1  0.664971  0  0.304664  0.412284  0  0.914855  0
H  H21  1  0.63341896  0.08121400  0.43132289  1  0.125579  0  0.123369  0.154726  0  0.986441  0
H  H22  1  0.93285298  0.67592067  0.22500976  1  0.026281  0  0.100917  0.095911  0  1.002672  0
H  H23  1  0.38679556  0.36092644  0.97268097  1  0.093493  0  0.106709  0.109823  0  1.021416  0
H  H24  1  0.90533721  0.70045390  0.38964181  1  0.078284  0  0.108327  0.123595  0  0.977939  0
H  H25  1  0.84405960  0.41655314  0.54687496  1  0.066327  0  0.104712  0.109199  0  1.000624  0
H  H26  1  0.04970877  0.92481348  0.09198639  1  0.096212  0  0.115327  0.134658  0  0.993283  0
H  H27  1  0.58784096  0.65437956  0.43805166  1  0.084739  0  0.102442  0.103063  0  1.039106  0
H  H28  1  0.42728329  0.58989621  0.38763750  1  0.106522  0  0.103066  0.117693  0  1.005465  0
H  H29  1  0.82575671  0.68511614  0.00844053  1  0.535951  0  0.312081  0.288627  0  1.01085  0
H  H30  1  0.14369124  0.76308088  0.00491677  1  0.074522  0  0.108107  0.120343  0  1.020514  0
H  H31  1  0.09701150  0.65720531  0.28097360  1  0.095358  0  0.105401  0.110691  0  0.997642  0
H  H32  1  0.04483289  0.03678437  0.76230008  1  0.094522  0  0.106512  0.111892  0  0.996409  0
H  H33  1  0.31772964  0.24891792  0.42519371  1  0.141174  0  0.135363  0.067022  0  0.989388  0
H  H34  1  0.98436468  0.21786168  0.15141600  1  0.050299  0  0.104482  0.114646  0  0.977178  0
H  H35  1  0.61469454  0.03341174  0.13450431  1  0.051669  0  0.106584  0.117836  0  1.008879  0
H  H36  1  0.98026899  0.18972047  0.56587328  1  0.080669  0  0.113466  0.119747  0  1.00027  0
H  H37  1  0.13054679  0.92671573  0.88292017  1  0.033838  0  0.102574  0.113883  0  1.002781  0
H  H38  1  0.91553739  0.05757849  0.97541742  1  0.664986  0  0.304682  0.412297  0  0.914841  0
H  H39  1  0.40298395  0.65720723  0.21902544  1  0.095544  0  0.10539  0.110605  0  0.997558  0
H  H40  1  0.21773136  0.51272150  0.91462253  1  0.041152  0  0.098899  0.107554  0  1.000777  0
H  H41  1  0.35630885  0.76308081  0.49508335  1  0.074546  0  0.108087  0.120316  0  1.020451  0
H  H42  1  0.24106691  0.91870728  0.34372083  1  0.494527  0  0.337106  0.298464  0  0.906129  0
H  H43  1  0.54970766  0.07519244  0.59198788  1  0.096381  0  0.115303  0.134629  0  0.993356  0
H  H44  1  0.11469916  0.96658809  0.63450492  1  0.051664  0  0.106605  0.117826  0  1.008817  0
H  H45  1  0.15253220  0.71345414  0.87468347  1  0.073664  0  0.105721  0.119238  0  0.997191  0
H  H46  1  0.62181340  0.05552061  0.79314049  1  0.039812  0  0.103671  0.097654  0  0.995926  0
H  H47  1  0.19837369  0.29697386  0.82469403  1  0.44988  0  0.336452  0.295957  0  0.90645  0
H  H48  1  0.84747260  0.28654628  0.12531545  1  0.073687  0  0.105733  0.119275  0  0.997218  0
H  H49  1  0.17424806  0.31488629  0.99155974  1  0.535953  0  0.312095  0.288649  0  1.010854  0
H  H50  1  0.86657011  0.08121594  0.06867648  1  0.12559  0  0.123414  0.154831  0  0.98633  0
H  H51  1  0.25789205  0.90143029  0.01086071  1  0.656623  0  0.303383  0.408583  0  0.923531  0
H  H52  1  0.36657481  0.91878575  0.56867762  1  0.12553  0  0.123389  0.154788  0  0.986419  0
H  H53  1  0.37818770  0.94447779  0.20686031  1  0.03981  0  0.103664  0.097647  0  0.995969  0
H  H54  1  0.07271349  0.58990035  0.11236343  1  0.10663  0  0.103033  0.117687  0  1.005396  0
H  H55  1  0.34406018  0.58344924  0.04687509  1  0.066364  0  0.10471  0.109206  0  1.000611  0
H  H56  1  0.01973457  0.81027928  0.43412672  1  0.080438  0  0.113468  0.119726  0  1.000299  0
H  H57  1  0.45028613  0.92480999  0.40801210  1  0.096305  0  0.115318  0.134648  0  0.993336  0
H  H58  1  0.27010585  0.85165727  0.90498507  1  0.044308  0  0.109649  0.125972  0  0.986357  0
H  H59  1  0.08446251  0.94241925  0.02458202  1  0.664985  0  0.304686  0.412324  0  0.914824  0
H  H60  1  0.93744768  0.37331971  0.42568225  1  0.070832  0  0.099315  0.105633  0  1.006575  0
H  H61  1  0.71772822  0.48727893  0.41462247  1  0.041073  0  0.098913  0.107611  0  1.000742  0
H  H62  1  0.38530048  0.96658532  0.86549512  1  0.051617  0  0.106597  0.117822  0  1.00887  0
H  H63  1  0.68226533  0.75108048  0.57480790  1  0.141165  0  0.135437  0.067122  0  0.989449  0
H  H64  1  0.18226541  0.24891663  0.07480695  1  0.141227  0  0.135369  0.066943  0  0.989491  0
H  H65  1  0.75789213  0.09856878  0.51086085  1  0.656638  0  0.303406  0.408595  0  0.923519  0
H  H66  1  0.59701960  0.34279252  0.78097483  1  0.096072  0  0.105433  0.1107  0  0.997615  0
H  H67  1  0.90298718  0.34279444  0.71902585  1  0.095348  0  0.105406  0.110669  0  0.997647  0
H  H68  1  0.56713849  0.67592146  0.27499015  1  0.026312  0  0.100946  0.095949  0  1.002671  0
H  H69  1  0.81773938  0.75108178  0.92519224  1  0.141262  0  0.135382  0.066969  0  0.989526  0
H  H70  1  0.11320896  0.36092586  0.52732125  1  0.093414  0  0.106695  0.109841  0  1.021335  0
H  H71  1  0.28227042  0.51272350  0.58537914  1  0.091631  0  0.098873  0.107555  0  1.000779  0
H  H72  1  0.78226487  0.48727556  0.08537745  1  0.041133  0  0.098871  0.10753  0  1.000759  0
H  H73  1  0.57271538  0.41010689  0.61236249  1  0.106466  0  0.103051  0.117639  0  1.005449  0
H  H74  1  0.87817935  0.05552389  0.70685907  1  0.039832  0  0.103686  0.097654  0  0.99597  0
H  H75  1  0.01563765  0.78213740  0.84858372  1  0.050268  0  0.104492  0.114626  0  0.977259  0
H  H76  1  0.24210408  0.90143029  0.48913995  1  0.656582  0  0.303372  0.408563  0  0.923556  0
H  H77  1  0.13343101  0.91878380  0.93132325  1  0.125588  0  0.123415  0.154815  0  0.98636  0
H  H78  1  0.36945903  0.92671499  0.61708016  1  0.033802  0  0.102555  0.113875  0  1.00282  0
H  H79  1  0.48026788  0.81027847  0.06587287  1  0.080625  0  0.113472  0.119752  0  1.000253  0
H  H80  1  0.12181689  0.94447586  0.29314036  1  0.039857  0  0.103669  0.097645  0  0.995955  0
H  H81  1  0.51973692  0.18971927  0.93412578  1  0.080504  0  0.113475  0.11972  0  1.000314  0
H  H82  1  0.48436968  0.78213927  0.65141688  1  0.050229  0  0.104493  0.114669  0  0.977146  0
H  H83  1  0.85631236  0.23692155  0.99508051  1  0.074493  0  0.108089  0.120259  0  1.020598  0
H  H84  1  0.74210786  0.09856945  0.98913819  1  0.656618  0  0.303355  0.408511  0  0.923621  0
H  H85  1  0.61320796  0.63907733  0.02732092  1  0.093352  0  0.106701  0.109853  0  1.021331  0
H  H86  1  0.45515892  0.03678491  0.73769968  1  0.094717  0  0.1065  0.111887  0  0.996433  0
H  H87  1  0.69837743  0.70302391  0.32469399  1  0.449857  0  0.336432  0.29592  0  0.906415  0
H  H88  1  0.08784322  0.34561491  0.93805227  1  0.085076  0  0.102415  0.103009  0  1.039232  0
H  H89  1  0.74107190  0.08128710  0.84372179  1  0.494453  0  0.337064  0.298436  0  0.906075  0
H  H90  1  0.09466512  0.29954585  0.61035845  1  0.078288  0  0.108346  0.123617  0  0.977943  0
H  H91  1  0.43286382  0.32408097  0.72501066  1  0.026307  0  0.100924  0.095903  0  1.002647  0
H  H92  1  0.25893166  0.91871399  0.15627766  1  0.494424  0  0.337065  0.298404  0  0.906108  0
H  H93  1  0.34747407  0.71345408  0.62531686  1  0.073781  0  0.10577  0.119286  0  0.99714  0
H  H94  1  0.95029357  0.07518560  0.90801306  1  0.096197  0  0.115303  0.134645  0  0.993313  0
H  H95  1  0.56227495  0.69604685  0.62225606  1  0.057765  0  0.115482  0.128715  0  0.982174  0
H  H96  1  0.51563019  0.21786182  0.34858392  1  0.050275  0  0.104492  0.114673  0  0.977224  0
H  H97  1  0.88529827  0.03341232  0.36549615  1  0.051664  0  0.10661  0.117833  0  1.008866  0
H  H98  1  0.88679212  0.63907389  0.47268009  1  0.093422  0  0.106706  0.109827  0  1.021365  0
H  H99  1  0.64368860  0.23691894  0.50491663  1  0.074522  0  0.108133  0.120354  0  1.020538  0
H  H100  1  0.30162489  0.29697718  0.67530628  1  0.449811  0  0.336448  0.295879  0  0.906491  0
H  H101  1  0.22990135  0.85165796  0.59501526  1  0.044424  0  0.109603  0.125943  0  0.986409  0
H  H102  1  0.72989771  0.14834247  0.09501466  1  0.04436  0  0.109634  0.125975  0  0.986405  0
H  H103  1  0.43744814  0.62668126  0.92568204  1  0.07081  0  0.099315  0.105639  0  1.00658  0
H  H104  1  0.59466887  0.70045400  0.11035786  1  0.078284  0  0.108323  0.123595  0  0.977966  0
H  H105  1  0.06226880  0.30395436  0.12225510  1  0.057845  0  0.115457  0.12871  0  0.982209  0
H  H106  1  0.65593968  0.41655386  0.95312652  1  0.066409  0  0.104723  0.109228  0  1.000578  0
H  H107  1  0.32575416  0.31488491  0.50844004  1  0.535957  0  0.31209  0.288656  0  1.010856  0
H  H108  1  0.95516212  0.96321538  0.23769963  1  0.094702  0  0.106509  0.111858  0  0.996457  0
H  H109  1  0.80162620  0.70302388  0.17530568  1  0.449848  0  0.33645  0.29592  0  0.90642  0
H  H110  1  0.77009365  0.14834111  0.40498526  1  0.0445  0  0.109623  0.125972  0  0.98633  0
H  H111  1  0.15593905  0.58344728  0.45312584  1  0.066418  0  0.104721  0.109205  0  1.000607  0
C  C112  1  0.12037484  0.79864472  0.29115372  1  0.020001  0  -0.004974  0.011655  0  4.016017  0
C  C113  1  0.53306723  0.25295394  0.37460229  1  0.285369  0  -0.123744  -0.273973  0  3.934941  0
C  C114  1  0.03307722  0.74704460  0.87460156  1  0.285814  0  -0.123703  -0.273904  0  3.93479  0
C  C115  1  0.98902005  0.00829999  0.56907697  1  1.538884  0  0.21364  0.626166  0  4.17457  0
C  C116  1  0.68407209  0.80751521  0.14556789  1  0.369748  0  0.096384  0.14995  0  4.041329  0
C  C117  1  0.43221179  0.17815389  0.72738690  1  0.079689  0  -0.006882  0.011746  0  4.020723  0
C  C118  1  0.21692136  0.78423423  0.32389657  1  0.94115  0  0.221661  0.301731  0  4.060772  0
C  C119  1  0.15719569  0.71021185  0.98487525  1  0.03038  0  -0.087589  -0.167426  0  3.952335  0
C  C120  1  0.30131735  0.70198933  0.96506258  1  -0.011098  0  -0.029958  -0.050404  0  4.016893  0
C  C121  1  0.38554897  0.03844432  0.87077105  1  0.022312  0  -0.091395  -0.186988  0  3.965722  0
C  C122  1  0.61444850  0.96155408  0.12922785  1  0.022455  0  -0.091462  -0.186966  0  3.965882  0
C  C123  1  0.94628180  0.14707286  0.90283054  1  0.058668  0  -0.082512  -0.169353  0  3.93272  0
C  C124  1  0.44627819  0.85292274  0.40282876  1  0.058832  0  -0.0825  -0.169311  0  3.932871  0
C  C125  1  0.28307381  0.78424025  0.17610328  1  0.940383  0  0.221456  0.301347  0  4.06111  0
C  C126  1  0.41381459  0.54683660  0.02660019  1  -0.070068  0  -0.080247  -0.098274  0  3.962307  0
C  C127  1  0.02720238  0.26465303  0.76013939  1  -0.040943  0  -0.090448  -0.120218  0  4.000168  0
C  C128  1  0.53095946  0.79318397  0.42553350  1  -0.052089  0  -0.026428  -0.048346  0  4.006778  0
C  C129  1  0.34650299  0.46848828  0.01153797  1  0.001642  0  -0.002225  0.017845  0  4.005112  0
C  C130  1  0.93605638  0.33756932  0.89086688  1  -0.034059  0  -0.096513  -0.164255  0  3.988166  0
C  C131  1  0.84650096  0.53151209  0.51153728  1  0.001555  0  -0.002171  0.017879  0  4.005094  0
C  C132  1  0.39732024  0.22763166  0.88464406  1  -0.05626  0  -0.093585  -0.163089  0  3.998132  0
C  C133  1  0.19154418  0.09868772  0.65283381  1  0.354947  0  0.079853  0.137461  0  4.118951  0
C  C134  1  0.88554726  0.96155466  0.37077234  1  0.02241  0  -0.091415  -0.186962  0  3.965773  0
C  C135  1  0.96903788  0.79318787  0.07446643  1  -0.051828  0  -0.02637  -0.048277  0  4.006745  0
C  C136  1  0.43503414  0.42232926  0.98471525  1  0.016228  0  -0.084906  -0.112059  0  3.957842  0
C  C137  1  0.09262552  0.19458687  0.07086200  1  1.378773  0  0.194781  0.330419  0  4.074898  0
C  C138  1  0.93450018  0.23293779  0.47239769  1  1.520207  0  0.194687  0.574924  0  4.214651  0
C  C139  1  0.18608253  0.43731218  0.02282489  1  0.946802  0  0.225929  0.314513  0  4.020786  0
C  C140  1  0.64455608  0.27857012  0.63295888  1  0.408298  0  0.086102  0.151183  0  4.08852  0
C  C141  1  0.69915011  0.43191849  0.43350043  1  -0.01555  0  -0.098557  -0.168371  0  4.009473  0
C  C142  1  0.54508832  0.92729469  0.09740586  1  -0.042176  0  -0.022203  -0.045942  0  3.996237  0
C  C143  1  0.34280446  0.71021180  0.51512561  1  0.030388  0  -0.087615  -0.167401  0  3.952313  0
C  C144  1  0.40736841  0.19458676  0.42913974  1  1.379006  0  0.1947  0.330315  0  4.075129  0
C  C145  1  0.13849407  0.81565264  0.12624741  1  0.358727  0  0.093944  0.151202  0  4.03795  0
C  C146  1  0.97554314  0.69930378  0.08055409  1  -0.019411  0  -0.092712  -0.106983  0  4.001861  0
C  C147  1  0.58092754  0.11501781  0.77846574  1  -0.022863  0  -0.084143  -0.10556  0  3.985277  0
C  C148  1  0.43450280  0.76706184  0.97239693  1  1.520208  0  0.194744  0.574953  0  4.214829  0
C  C149  1  0.46247619  0.16614896  0.90915247  1  0.093101  0  -0.08315  -0.090866  0  3.970427  0
C  C150  1  0.03551539  0.64762474  0.97815150  1  0.356189  0  0.093134  0.143163  0  4.059858  0
C  C151  1  0.56506251  0.27605455  0.77119794  1  -0.022324  0  -0.083038  -0.096828  0  3.963168  0
C  C152  1  0.56394675  0.33757481  0.60913353  1  -0.033834  0  -0.0965  -0.164067  0  3.988384  0
C  C153  1  0.45491282  0.07270304  0.90259277  1  -0.041887  0  -0.022349  -0.045819  0  3.996062  0
C  C154  1  0.78307976  0.21576619  0.67610288  1  0.941399  0  0.221618  0.301621  0  4.060891  0
C  C155  1  0.31391823  0.43731079  0.47717605  1  0.94652  0  0.225936  0.314586  0  4.020699  0
C  C156  1  0.56779176  0.82184787  0.27261364  1  0.079978  0  -0.006899  0.011698  0  4.020724  0
C  C157  1  0.11445506  0.03844643  0.62922847  1  0.022435  0  -0.09148  -0.18703  0  3.965808  0
C  C158  1  0.46448369  0.64762394  0.52184855  1  0.356247  0  0.093088  0.143106  0  4.059819  0
C  C159  1  0.53752495  0.83384878  0.09084644  1  0.09321  0  -0.083087  -0.090678  0  3.970269  0
C  C160  1  0.16790709  0.16280879  0.80475802  1  0.925849  0  0.219533  0.302414  0  4.046376  0
C  C161  1  0.02445551  0.30069462  0.91944671  1  -0.019667  0  -0.092628  -0.106819  0  4.0017  0
C  C162  1  0.14717533  0.88103920  0.90606296  1  0.286796  0  -0.12957  -0.275096  0  3.868482  0
C  C163  1  0.17901693  0.63149445  0.56034054  1  -0.023447  0  -0.095873  -0.115179  0  4.01892  0
C  C164  1  0.44741264  0.57560719  0.54700129  1  0.386963  0  0.085058  0.146439  0  4.078665  0
C  C165  1  0.68608044  0.56268829  0.52282420  1  0.946524  0  0.225947  0.314577  0  4.020696  0
C  C166  1  0.48826276  0.10356314  0.74721613  1  -0.052681  0  -0.080601  -0.09405  0  3.951818  0
C  C167  1  0.64716198  0.11895725  0.40606260  1  0.286767  0  -0.129458  -0.274935  0  3.868412  0
C  C168  1  0.31592782  0.19248051  0.85443129  1  0.369748  0  0.096454  0.150078  0  4.041319  0
C  C169  1  0.13177305  0.16946448  0.95550974  1  1.496762  0  0.202454  0.568313  0  4.206119  0
C  C170  1  0.06505547  0.72394397  0.27119779  1  -0.021304  0  -0.083018  -0.096818  0  3.963005  0
C  C171  1  0.03752757  0.16615043  0.59084704  1  0.092774  0  -0.083106  -0.09072  0  3.97035  0
C  C172  1  0.66790931  0.83718899  0.30475905  1  0.925226  0  0.219511  0.302366  0  4.046563  0
C  C173  1  0.05371687  0.85292622  0.09716945  1  0.05867  0  -0.082546  -0.169375  0  3.932726  0
C  C174  1  0.93503084  0.57767171  0.48471410  1  0.016345  0  -0.084932  -0.112068  0  3.957714  0
C  C175  1  0.80084434  0.43191712  0.06649814  1  -0.015515  0  -0.098496  -0.168172  0  4.009345  0
C  C176  1  0.63176675  0.83053198  0.45550967  1  1.496753  0  0.202504  0.56828  0  4.206039  0
C  C177  1  0.93220796  0.82184776  0.22738657  1  0.079517  0  -0.006881  0.011703  0  4.020667  0
C  C178  1  0.35283179  0.88104048  0.59393791  1  0.286871  0  -0.129445  -0.274974  0  3.868592  0
C  C179  1  0.47280483  0.26465423  0.73986067  1  -0.040904  0  -0.090428  -0.12018  0  4.000271  0
C  C180  1  0.33209668  0.16281210  0.69524149  1  0.925427  0  0.219404  0.302174  0  4.046735  0
C  C181  1  0.30846217  0.09868567  0.84716544  1  0.355093  0  0.079845  0.137479  0  4.11902  0
C  C182  1  0.63849520  0.18435456  0.62624728  1  0.353641  0  0.09404  0.151177  0  4.038239  0
C  C183  1  0.81593133  0.80751517  0.35443178  1  0.369414  0  0.096396  0.149925  0  4.04132  0
C  C184  1  0.47554550  0.30070187  0.58055388  1  -0.019071  0  -0.092652  -0.106996  0  4.001823  0
C  C185  1  0.51174079  0.89643862  0.25278414  1  -0.052688  0  -0.080646  -0.094101  0  3.951585  0
C  C186  1  0.30084977  0.56808260  0.56650010  1  -0.066075  0  -0.09849  -0.168223  0  4.009322  0
C  C187  1  0.01173501  0.10356262  0.75278392  1  -0.05235  0  -0.080572  -0.093996  0  3.95175  0
C  C188  1  0.62038082  0.20135309  0.79115387  1  0.020382  0  -0.004925  0.011809  0  4.015924  0
C  C189  1  0.05258902  0.57560730  0.95299957  1  0.386939  0  0.085035  0.146431  0  4.078669  0
C  C190  1  0.96448452  0.35237568  0.02184741  1  0.356231  0  0.093114  0.143193  0  4.059764  0
C  C191  1  0.98825878  0.89643713  0.24721552  1  -0.052645  0  -0.080614  -0.09399  0  3.951746  0
C  C192  1  0.18407588  0.19248458  0.64556850  1  0.369849  0  0.096321  0.149906  0  4.041151  0
C  C193  1  0.36150715  0.81564787  0.37375190  1  0.358643  0  0.09393  0.151243  0  4.038004  0
C  C194  1  0.82098172  0.36850798  0.43966053  1  -0.023603  0  -0.095852  -0.1151  0  4.018956  0
C  C195  1  0.36822579  0.16947046  0.54449139  1  1.49663  0  0.202579  0.568445  0  4.205892  0
C  C196  1  0.69153897  0.90131273  0.15283347  1  0.355071  0  0.079983  0.137672  0  4.118661  0
C  C197  1  0.94741088  0.42439379  0.04700015  1  0.387022  0  0.085001  0.146333  0  4.078572  0
C  C198  1  0.69868136  0.29801041  0.03493497  1  -0.011558  0  -0.029973  -0.05068  0  4.017327  0
C  C199  1  0.65719297  0.28978862  0.48487519  1  0.030808  0  -0.087647  -0.167531  0  3.952525  0
C  C200  1  0.41907114  0.88498328  0.22153343  1  -0.023114  0  -0.084061  -0.105447  0  3.985234  0
C  C201  1  0.06778950  0.17815198  0.77261287  1  0.079307  0  -0.00686  0.011745  0  4.020747  0
C  C202  1  0.06497148  0.42232938  0.51528644  1  0.016218  0  -0.084944  -0.11212  0  3.957753  0
C  C203  1  0.96247720  0.83384931  0.40915323  1  0.093388  0  -0.083125  -0.090727  0  3.970325  0
C  C204  1  0.35544870  0.72143097  0.36704058  1  0.402924  0  0.086088  0.151018  0  4.088593  0
C  C205  1  0.19915313  0.56808129  0.93350076  1  -0.01559  0  -0.098542  -0.16827  0  4.009429  0
C  C206  1  0.52720115  0.73534753  0.26014042  1  -0.040821  0  -0.090462  -0.12027  0  4.000216  0
C  C207  1  0.90737804  0.80540952  0.92913800  1  1.378926  0  0.194595  0.330105  0  4.075105  0
C  C208  1  0.52445196  0.69930123  0.41944556  1  -0.019205  0  -0.092661  -0.106946  0  4.001811  0
C  C209  1  0.85544962  0.27856468  0.86704126  1  0.408662  0  0.086136  0.151152  0  4.088467  0
C  C210  1  0.85282822  0.11895988  0.09393731  1  0.286772  0  -0.129534  -0.275105  0  3.868607  0
C  C211  1  0.67901777  0.36850601  0.06033751  1  -0.023406  0  -0.09595  -0.115308  0  4.019127  0
C  C212  1  0.06394226  0.66243177  0.10913474  1  -0.033938  0  -0.096521  -0.164251  0  3.988414  0
C  C213  1  0.91906753  0.11501972  0.72153356  1  -0.023213  0  -0.084178  -0.105601  0  3.985374  0
C  C214  1  0.80131583  0.29801239  0.46506279  1  -0.011499  0  -0.029954  -0.050369  0  4.016991  0
C  C215  1  0.51098257  0.00829812  0.93092262  1  1.538863  0  0.213672  0.626131  0  4.174492  0
C  C216  1  0.19868038  0.70199138  0.53493827  1  -0.011172  0  -0.029972  -0.05053  0  4.017195  0
C  C217  1  0.46903677  0.20681846  0.57446648  1  -0.052382  0  -0.026477  -0.048471  0  4.006784  0
C  C218  1  0.56496816  0.57767318  0.01528637  1  0.016362  0  -0.084984  -0.112213  0  3.957788  0
C  C219  1  0.14454903  0.72143641  0.13295981  1  0.403593  0  0.086173  0.151191  0  4.088481  0
C  C220  1  0.03096322  0.20681255  0.92553411  1  -0.051809  0  -0.026382  -0.04832  0  4.006694  0
C  C221  1  0.32098339  0.63149239  0.93966032  1  -0.023617  0  -0.095896  -0.1152  0  4.018941  0
C  C222  1  0.55258724  0.42439323  0.45299897  1  0.386989  0  0.085019  0.146417  0  4.078556  0
C  C223  1  0.83209037  0.83718961  0.19524115  1  0.925234  0  0.219456  0.302288  0  4.046595  0
C  C224  1  0.56550447  0.23293657  0.02760063  1  1.52078  0  0.194745  0.575322  0  4.214359  0
C  C225  1  0.71692607  0.21576151  0.82389726  1  0.940481  0  0.221562  0.301535  0  4.060963  0
C  C226  1  0.43494105  0.72394788  0.22880206  1  -0.02194  0  -0.082987  -0.096655  0  3.962978  0
C  C227  1  0.08618473  0.54683535  0.47340021  1  -0.070042  0  -0.08026  -0.098265  0  3.962245  0
C  C228  1  0.86150703  0.18434845  0.87375312  1  0.353668  0  0.093923  0.151177  0  4.037986  0
C  C229  1  0.81391856  0.56268891  0.97717619  1  0.946511  0  0.225874  0.314441  0  4.020694  0
C  C230  1  0.96692513  0.25295515  0.12539735  1  0.28535  0  -0.123723  -0.274014  0  3.93494  0
C  C231  1  0.95490996  0.92729590  0.40259434  1  -0.04217  0  -0.022279  -0.045918  0  3.996153  0
C  C232  1  0.43605437  0.66242695  0.39086565  1  -0.033924  0  -0.096514  -0.164143  0  3.988553  0
C  C233  1  0.89732016  0.77236665  0.38464481  1  -0.055955  0  -0.093595  -0.163174  0  3.998193  0
C  C234  1  0.93494198  0.27605578  0.72880220  1  -0.021077  0  -0.083004  -0.096744  0  3.963121  0
C  C235  1  0.04509358  0.07270384  0.59740648  1  -0.042197  0  -0.022238  -0.045872  0  3.996223  0
C  C236  1  0.58618650  0.45316583  0.97340116  1  -0.070002  0  -0.080303  -0.09833  0  3.962395  0
C  C237  1  0.37962152  0.79865001  0.20884586  1  0.02029  0  -0.004941  0.011748  0  4.01611  0
C  C238  1  0.48901980  0.99169894  0.06907548  1  1.539084  0  0.213686  0.626349  0  4.174374  0
C  C239  1  0.97279508  0.73534672  0.23985978  1  -0.040826  0  -0.090408  -0.120145  0  4.000079  0
C  C240  1  0.84280790  0.28978991  0.01512286  1  0.030737  0  -0.087548  -0.167291  0  3.952412  0
C  C241  1  0.55371805  0.14707969  0.59717067  1  0.058873  0  -0.082512  -0.169209  0  3.93278  0
C  C242  1  0.87962261  0.20135637  0.70884626  1  0.019752  0  -0.00494  0.011757  0  4.015995  0
C  C243  1  0.53551253  0.35237514  0.47815171  1  0.356177  0  0.093171  0.143236  0  4.059808  0
C  C244  1  0.10268461  0.22763376  0.61535546  1  -0.055826  0  -0.093617  -0.163225  0  3.998103  0
C  C245  1  0.46693264  0.74704648  0.62539878  1  0.285379  0  -0.123696  -0.273897  0  3.934611  0
C  C246  1  0.86822805  0.83053258  0.04449107  1  1.496704  0  0.20257  0.568381  0  4.205761  0
C  C247  1  0.60268333  0.77236675  0.11535486  1  -0.056302  0  -0.093678  -0.163301  0  3.998166  0
C  C248  1  0.06549726  0.76706263  0.52760284  1  1.520235  0  0.19473  0.575156  0  4.214773  0
C  C249  1  0.01097372  0.99169975  0.43092381  1  1.538772  0  0.213642  0.626147  0  4.174543  0
C  C250  1  0.08092626  0.88498070  0.27846614  1  -0.022842  0  -0.084097  -0.105474  0  3.98521  0
C  C251  1  0.15349770  0.46848766  0.48846352  1  0.001773  0  -0.00215  0.017905  0  4.005023  0
C  C252  1  0.65349932  0.53151281  0.98846366  1  0.001541  0  -0.002096  0.018008  0  4.005056  0
C  C253  1  0.59263264  0.80540426  0.57086350  1  1.378569  0  0.194648  0.330189  0  4.074782  0
C  C254  1  0.91381271  0.45316574  0.52660005  1  -0.070118  0  -0.080286  -0.098317  0  3.96233  0
C  C255  1  0.80846426  0.90131336  0.34716620  1  0.355086  0  0.079951  0.137696  0  4.118699  0
N  N256  1  0.61713167  0.63756019  0.50747534  1  -1.289899  0  -0.387188  -0.325379  0  3.611781  0
N  N257  1  0.72763512  0.14684479  0.65426094  1  -1.276678  0  -0.381255  -0.325129  0  3.605247  0
N  N258  1  0.22763637  0.85316303  0.15426026  1  -1.276122  0  -0.381104  -0.324864  0  3.605292  0
N  N259  1  0.77236474  0.14683806  0.84573973  1  -1.276084  0  -0.381098  -0.324912  0  3.605151  0
N  N260  1  0.88286962  0.63756144  0.99252452  1  -1.289915  0  -0.387182  -0.325353  0  3.61175  0
N  N261  1  0.73421902  0.29581487  0.66396347  1  -1.137706  0  -0.351954  -0.433582  0  3.185246  0
N  N262  1  0.26578455  0.70418622  0.33603545  1  -1.137485  0  -0.351959  -0.433587  0  3.185256  0
N  N263  1  0.78405187  0.91749059  0.18359351  1  -1.118846  0  -0.35033  -0.427133  0  3.197265  0
N  N264  1  0.58696355  0.52339974  0.54693019  1  -1.105038  0  -0.344631  -0.426552  0  3.154952  0
N  N265  1  0.21594926  0.08250781  0.81640540  1  -1.119167  0  -0.350309  -0.427044  0  3.197467  0
N  N266  1  0.02511759  0.81025310  0.90447283  1  -1.222407  0  -0.27571  0.035443  0  3.728889  0
N  N267  1  0.38286823  0.36243889  0.49252411  1  -1.28995  0  -0.387235  -0.32546  0  3.611973  0
N  N268  1  0.47489093  0.81025498  0.59552669  1  -1.22239  0  -0.275762  0.03529  0  3.729231  0
N  N269  1  0.11713514  0.36244032  0.00747630  1  -1.290259  0  -0.38716  -0.3253  0  3.611768  0
N  N270  1  0.77303970  0.76890700  0.17326792  1  -1.216862  0  -0.381554  -0.325322  0  3.601607  0
N  N271  1  0.22696020  0.23109207  0.82673153  1  -1.217195  0  -0.38163  -0.325559  0  3.601564  0
N  N272  1  0.72696380  0.76890702  0.32673175  1  -1.216875  0  -0.381562  -0.325381  0  3.601644  0
N  N273  1  0.23420834  0.70419160  0.16396439  1  -1.137744  0  -0.351903  -0.433416  0  3.185287  0
N  N274  1  0.41303389  0.47660202  0.45307033  1  -1.104983  0  -0.344618  -0.426554  0  3.154938  0
N  N275  1  0.91303430  0.52339896  0.95307047  1  -1.104946  0  -0.344562  -0.426456  0  3.154857  0
N  N276  1  0.27236356  0.85315832  0.34573824  1  -1.276625  0  -0.381229  -0.325056  0  3.60505  0
N  N277  1  0.28405957  0.08251048  0.68359359  1  -1.118996  0  -0.350188  -0.426913  0  3.197543  0
N  N278  1  0.27304220  0.23109474  0.67326798  1  -1.216894  0  -0.381531  -0.325199  0  3.601521  0
N  N279  1  0.08696314  0.47660213  0.04692979  1  -1.105059  0  -0.344608  -0.42651  0  3.154973  0
N  N280  1  0.71594886  0.91748994  0.31640669  1  -1.118821  0  -0.350344  -0.427127  0  3.197394  0
N  N281  1  0.76578664  0.29580949  0.83603694  1  -1.137832  0  -0.351957  -0.433524  0  3.185368  0
N  N282  1  0.97488718  0.18974396  0.09552717  1  -1.222488  0  -0.275749  0.0354  0  3.729056  0
N  N283  1  0.52510410  0.18974477  0.40447248  1  -1.222395  0  -0.275816  0.035133  0  3.729154  0
O  O284  1  0.70196553  0.04467181  0.52066165  1  -1.307922  0  -0.650249  -0.859216  0  2.066397  0
O  O285  1  0.11297112  0.08788661  0.96568997  1  -1.186389  0  -0.354087  -0.6151  0  2.259319  0
O  O286  1  0.59650394  0.94053624  0.92300102  1  -1.175565  0  -0.365323  -0.617162  0  2.149488  0
O  O287  1  0.29803068  0.95532861  0.47933915  1  -1.307901  0  -0.650256  -0.85923  0  2.066328  0
O  O288  1  0.38703274  0.08789122  0.53431307  1  -1.186187  0  -0.354156  -0.615214  0  2.258977  0
O  O289  1  0.10300306  0.14114482  0.04464288  1  -1.185354  0  -0.38149  -0.546481  0  2.384468  0
O  O290  1  0.96760103  0.97766073  0.46408592  1  -1.204877  0  -0.431547  -0.724764  0  2.387605  0
O  O291  1  0.90745486  0.16764784  0.49491260  1  -1.205595  0  -0.392361  -0.661841  0  2.296626  0
O  O292  1  0.92635791  0.76065294  0.54240516  1  -1.1822  0  -0.362545  -0.616286  0  2.20954  0
O  O293  1  0.88703119  0.91211113  0.03431111  1  -1.186287  0  -0.354156  -0.615169  0  2.259008  0
O  O294  1  0.09253770  0.83235257  0.50508764  1  -1.205598  0  -0.392316  -0.66192  0  2.296747  0
O  O295  1  0.09649703  0.05946360  0.42300304  1  -1.175505  0  -0.365242  -0.617141  0  2.149467  0
O  O296  1  0.24059171  0.21800818  0.97141897  1  -1.192778  0  -0.363855  -0.635622  0  2.310711  0
O  O297  1  0.07363833  0.23934882  0.45759428  1  -1.182123  0  -0.362475  -0.616203  0  2.209511  0
O  O298  1  0.59255115  0.16764795  0.00508546  1  -1.205725  0  -0.392356  -0.661955  0  2.296504  0
O  O299  1  0.61295736  0.91210919  0.46568825  1  -1.186313  0  -0.354054  -0.615096  0  2.259161  0
O  O300  1  0.25940460  0.21801019  0.52858134  1  -1.1928  0  -0.363839  -0.635551  0  2.310827  0
O  O301  1  0.57363947  0.76065304  0.95759441  1  -1.182169  0  -0.362481  -0.616149  0  2.209529  0
O  O302  1  0.39699588  0.14115009  0.45535752  1  -1.185676  0  -0.381389  -0.546335  0  2.384868  0
O  O303  1  0.03238542  0.02234036  0.53591404  1  -1.204909  0  -0.431498  -0.724701  0  2.387455  0
O  O304  1  0.74058306  0.78198620  0.47141971  1  -1.192734  0  -0.363888  -0.635579  0  2.310823  0
O  O305  1  0.40745489  0.83235113  0.99491238  1  -1.205559  0  -0.392438  -0.661936  0  2.29681  0
O  O306  1  0.60300648  0.85885234  0.54464112  1  -1.185211  0  -0.3815  -0.546497  0  2.384237  0
O  O307  1  0.90350405  0.94053749  0.57699831  1  -1.175552  0  -0.365269  -0.617133  0  2.149574  0
O  O308  1  0.20196413  0.95532663  0.02066096  1  -1.307924  0  -0.650254  -0.859238  0  2.066366  0
O  O309  1  0.79803578  0.04467043  0.97933821  1  -1.307941  0  -0.650229  -0.859135  0  2.066497  0
O  O310  1  0.75940938  0.78198822  0.02858211  1  -1.192799  0  -0.363849  -0.635567  0  2.310689  0
O  O311  1  0.89699926  0.85885225  0.95535766  1  -1.18555  0  -0.381355  -0.546261  0  2.384521  0
O  O312  1  0.53238129  0.97765953  0.03591261  1  -1.205038  0  -0.431583  -0.724868  0  2.387556  0
O  O313  1  0.42636412  0.23934201  0.04240369  1  -1.182542  0  -0.362505  -0.61631  0  2.209327  0
O  O314  1  0.46761497  0.02233955  0.96408574  1  -1.204812  0  -0.431465  -0.724671  0  2.387452  0
O  O315  1  0.40350208  0.05946216  0.07699736  1  -1.175746  0  -0.365285  -0.617206  0  2.149488  0
