# generated using pymatgen
data_NiH18C18(NO3)2
_symmetry_space_group_name_H-M   'P 1'
_cell_length_a   9.26693143
_cell_length_b   12.90547095
_cell_length_c   19.99592842
_cell_angle_alpha   108.76512413
_cell_angle_beta   103.04864158
_cell_angle_gamma   89.85213994
_symmetry_Int_Tables_number   1
_chemical_formula_structural   NiH18C18(NO3)2
_chemical_formula_sum   'Ni4 H72 C72 N8 O24'
_cell_volume   2199.44464227
_cell_formula_units_Z   4
loop_
 _symmetry_equiv_pos_site_id
 _symmetry_equiv_pos_as_xyz
  1  'x, y, z'
loop_
 _atom_site_type_symbol
 _atom_site_label
 _atom_site_symmetry_multiplicity
 _atom_site_fract_x
 _atom_site_fract_y
 _atom_site_fract_z
 _atom_site_occupancy
 _atom_site_pbe_bader_charge
 _atom_site_pbe_bader_spin_density
 _atom_site_pbe_cm5_charge
 _atom_site_pbe_ddec_charge
 _atom_site_pbe_ddec_spin_density
 _atom_site_pbe_ddec_sum_bond_order
 _atom_site_pbe_magmom
Ni  Ni0  1  0.17467671  0.63478833  0.72738541  1  1.160059  1.564975  0.630445  0.763649  1.826712  2.403112  1.551
Ni  Ni1  1  0.32613968  0.90852448  0.27211680  1  1.161163  -1.564308  0.630649  0.762649  -1.826217  2.405684  -1.55
Ni  Ni2  1  0.82595407  0.36485660  0.27276938  1  1.161786  1.565338  0.630074  0.76489  1.827353  2.400202  1.551
Ni  Ni3  1  0.67281196  0.09128158  0.72774481  1  1.162239  -1.564921  0.629759  0.763341  -1.827355  2.402274  -1.551
H  H4  1  0.43830831  0.60260687  0.76151940  1  0.64543  -0.000296  0.274828  0.361313  0.000176  0.9956  0.0
H  H5  1  0.06355351  0.84190019  0.23797292  1  0.631885  0.000322  0.274051  0.35998  -0.000171  0.998414  0.0
H  H6  1  0.56258339  0.39745651  0.23830962  1  0.63481  -0.000316  0.274894  0.360727  0.000175  0.996643  0.0
H  H7  1  0.93596135  0.15787686  0.76235139  1  0.639764  0.000312  0.274112  0.360682  -0.000173  0.997261  0.0
H  H8  1  0.42813872  0.73136512  0.77327156  1  0.633012  0.000117  0.282413  0.368095  0.00053  0.971423  0.0
H  H9  1  0.07268826  0.95919902  0.22651836  1  0.635962  -7.4e-05  0.281995  0.367499  -0.000521  0.972667  0.0
H  H10  1  0.57175825  0.26870048  0.22679021  1  0.63285  0.000127  0.282019  0.367711  0.00054  0.972141  0.0
H  H11  1  0.92667756  0.04028840  0.77334481  1  0.63658  -8.3e-05  0.28168  0.367294  -0.000523  0.973036  0.0
H  H12  1  0.05846580  0.83746624  0.75019804  1  0.65325  6.5e-05  0.284547  0.383407  0.000373  0.955249  0.0
H  H13  1  0.44085171  0.08880582  0.24968543  1  0.656042  -6.4e-05  0.284704  0.384  -0.000374  0.954535  0.0
H  H14  1  0.94068060  0.16235696  0.24989712  1  0.650014  5.8e-05  0.284528  0.38344  0.000364  0.955427  0.0
H  H15  1  0.55767740  0.91159395  0.75033970  1  0.647947  -4.6e-05  0.284277  0.382564  -0.000366  0.956296  0.0
H  H16  1  0.23438456  0.83915173  0.76743628  1  0.622317  -1.2e-05  0.298036  0.379706  0.000297  0.940287  0.0
H  H17  1  0.26515954  0.07326462  0.23204735  1  0.622981  1.1e-05  0.298535  0.380602  -0.0003  0.938066  0.0
H  H18  1  0.76486714  0.16074797  0.23224528  1  0.620276  -0.0  0.298619  0.380247  0.000307  0.93834  0.0
H  H19  1  0.73346243  0.92701601  0.76814313  1  0.627624  2.1e-05  0.298945  0.38046  -0.000299  0.936266  0.0
H  H20  1  0.78215040  0.47304263  0.49240571  1  0.104755  0.000897  0.106958  0.113783  0.000427  1.034319  0.0
H  H21  1  0.71797779  0.97988009  0.50705021  1  0.109744  -0.000901  0.106504  0.113217  -0.000429  1.034691  0.0
H  H22  1  0.21865912  0.52689012  0.50788250  1  0.102407  0.000896  0.107069  0.113446  0.000427  1.034672  0.0
H  H23  1  0.28141183  0.01921015  0.49243068  1  0.097401  -0.000904  0.107173  0.113805  -0.000427  1.035248  0.0
H  H24  1  0.03612888  0.52479999  0.57424356  1  0.094535  0.002145  0.117054  0.089544  0.000834  1.027918  0.002
H  H25  1  0.46399382  0.95028705  0.42498058  1  0.104178  -0.00215  0.116719  0.089339  -0.000837  1.028667  -0.002
H  H26  1  0.96476847  0.47465804  0.42602354  1  0.097104  0.002132  0.117066  0.089275  0.00083  1.028227  0.002
H  H27  1  0.53502303  0.04862989  0.57464418  1  0.095314  -0.002151  0.116618  0.089122  -0.000837  1.028388  -0.002
H  H28  1  0.37166663  0.80868819  0.45961800  1  0.059949  -0.000128  0.101594  0.09412  -8e-05  1.020324  0.0
H  H29  1  0.12854557  0.34832176  0.54017637  1  0.089087  0.000133  0.101646  0.094012  8.3e-05  1.018799  0.0
H  H30  1  0.62757521  0.19105723  0.54016431  1  0.054561  -0.000134  0.101448  0.093815  -8.4e-05  1.020128  0.0
H  H31  1  0.87165000  0.65136971  0.46005287  1  0.087126  0.000136  0.101581  0.093812  8.4e-05  1.019472  0.0
H  H32  1  0.04596584  0.71175859  0.39982065  1  0.096462  -0.001601  0.104963  0.12416  -0.000675  1.00742  -0.001
H  H33  1  0.45492757  0.31067675  0.59931734  1  0.091573  0.001622  0.105072  0.123518  0.000684  1.009822  0.001
H  H34  1  0.95295216  0.28851240  0.60062372  1  0.05782  -0.001652  0.10502  0.124056  -0.000684  1.007947  -0.001
H  H35  1  0.54582406  0.68939380  0.40015800  1  0.097034  0.001625  0.104809  0.123491  0.000687  1.009029  0.001
H  H36  1  0.60803990  0.63302549  0.68033032  1  0.110216  0.001178  0.109106  0.122738  0.000544  1.008177  0.001
H  H37  1  0.89237773  0.95401860  0.31943630  1  0.102854  -0.001183  0.109828  0.123266  -0.000545  1.008825  -0.001
H  H38  1  0.39298658  0.36733463  0.31993046  1  0.106439  0.00117  0.109498  0.123104  0.00054  1.009429  0.001
H  H39  1  0.10586704  0.04743101  0.67991430  1  0.115006  -0.001171  0.109777  0.123374  -0.000543  1.010552  -0.001
H  H40  1  0.15277572  0.70853557  0.52452723  1  0.063651  0.000109  0.102481  0.093457  5.5e-05  1.014662  0.0
H  H41  1  0.34774488  0.18358573  0.47479809  1  0.07524  -0.000104  0.102265  0.093262  -5.3e-05  1.015962  0.0
H  H42  1  0.84705892  0.29104550  0.47543381  1  0.065847  0.000107  0.10277  0.094402  5.5e-05  1.014523  0.0
H  H43  1  0.65169681  0.81608579  0.52495028  1  0.106291  -0.000106  0.102158  0.092978  -5.5e-05  1.015839  0.0
H  H44  1  0.46523892  0.82694167  0.59616222  1  0.077752  0.001233  0.103689  0.126685  0.000561  1.016763  0.001
H  H45  1  0.03420390  0.23096285  0.40392183  1  0.076613  -0.001237  0.104202  0.128098  -0.000558  1.015637  -0.001
H  H46  1  0.53439654  0.17287220  0.40407625  1  0.073067  0.001249  0.103785  0.127169  0.000566  1.016161  0.001
H  H47  1  0.96480888  0.76870113  0.59637813  1  0.080159  -0.001253  0.104216  0.127666  -0.000568  1.016521  -0.001
H  H48  1  0.43462954  0.54979436  0.56695623  1  0.062249  5.5e-05  0.103178  0.104517  4.3e-05  1.027017  0.0
H  H49  1  0.06565866  0.98311945  0.43287525  1  0.104614  -6.1e-05  0.102959  0.104407  -4.4e-05  1.026142  0.0
H  H50  1  0.56637192  0.45065676  0.43325545  1  0.058106  5.6e-05  0.103009  0.104331  4.3e-05  1.025723  0.0
H  H51  1  0.93317625  0.01688658  0.56633926  1  0.058846  -5.7e-05  0.103201  0.10474  -4.4e-05  1.025045  0.0
H  H52  1  0.86986847  0.67948120  0.75338998  1  0.106805  0.002312  0.122058  0.092795  0.000924  0.979625  0.001
H  H53  1  0.63054986  0.92800378  0.24628864  1  0.051851  -0.002323  0.121961  0.092491  -0.000924  0.979069  -0.001
H  H54  1  0.13135235  0.32012276  0.24692209  1  0.084167  0.002302  0.122118  0.092877  0.000918  0.978925  0.001
H  H55  1  0.36740648  0.07322261  0.75340320  1  0.127602  -0.002304  0.122117  0.092785  -0.000928  0.977613  -0.001
H  H56  1  0.09604417  0.68545414  0.98098995  1  0.080031  0.001116  0.109398  0.115732  0.000529  1.005533  0.001
H  H57  1  0.40889640  0.70669385  0.01917065  1  0.068592  -0.001143  0.109299  0.115059  -0.000535  1.005611  -0.001
H  H58  1  0.90477226  0.31441428  0.01930242  1  0.080409  0.001112  0.109338  0.115428  0.000527  1.005954  0.001
H  H59  1  0.59278050  0.29484790  0.98091307  1  0.069592  -0.001133  0.109083  0.11465  -0.000532  1.007561  -0.001
H  H60  1  0.16629904  0.74084831  0.88340867  1  0.114387  0.0022  0.121941  0.103613  0.000829  0.983933  0.002
H  H61  1  0.33699744  0.85964887  0.11637767  1  0.137468  -0.002202  0.122059  0.103954  -0.000836  0.983143  -0.002
H  H62  1  0.83462691  0.25905316  0.11686659  1  0.143532  0.002182  0.121904  0.103539  0.000828  0.984588  0.002
H  H63  1  0.66259672  0.14096653  0.88365246  1  0.143565  -0.002188  0.121804  0.103613  -0.000832  0.98177  -0.002
H  H64  1  0.95414321  0.38508807  0.94285178  1  0.076796  8e-05  0.107184  0.108005  8.5e-05  0.999997  0.0
H  H65  1  0.54980700  0.44390127  0.05777662  1  0.077314  -8.4e-05  0.10687  0.106976  -8.8e-05  1.001726  0.0
H  H66  1  0.04737259  0.61477591  0.05760024  1  0.081043  8.1e-05  0.107052  0.107689  8.6e-05  0.999536  0.0
H  H67  1  0.45235265  0.55754775  0.94226760  1  0.064795  -8.1e-05  0.106598  0.107305  -8.8e-05  0.999873  0.0
H  H68  1  0.99370630  0.35577378  0.82589911  1  0.097334  0.000805  0.112191  0.131821  0.000366  1.006809  0.0
H  H69  1  0.50873162  0.53148253  0.17456831  1  0.127567  -0.000785  0.112458  0.131445  -0.000367  1.007769  0.0
H  H70  1  0.00813111  0.64390265  0.17454573  1  0.135148  0.000786  0.112525  0.131658  0.00037  1.007276  0.0
H  H71  1  0.49228451  0.46934073  0.82528079  1  0.118842  -0.000785  0.112476  0.131078  -0.000365  1.007902  0.0
H  H72  1  0.06786067  0.42571717  0.73606115  1  0.144605  0.001991  0.121255  0.102264  0.000762  1.017195  0.001
H  H73  1  0.43285945  0.69144123  0.26385514  1  0.137271  -0.002007  0.120392  0.101148  -0.000764  1.020253  -0.001
H  H74  1  0.93384065  0.57401067  0.26439683  1  0.138274  0.001994  0.120969  0.101422  0.000762  1.017564  0.001
H  H75  1  0.56571900  0.30845945  0.73568767  1  0.126109  -0.002003  0.120363  0.101053  -0.00076  1.020446  -0.001
C  C76  1  0.79561852  0.51912115  0.54987661  1  -0.080534  0.00536  -0.082856  -0.176525  0.003138  3.940476  0.004
C  C77  1  0.70458937  0.96880912  0.44957301  1  -0.025486  -0.005322  -0.081469  -0.174605  -0.003146  3.939067  -0.004
C  C78  1  0.20524542  0.48075241  0.45039284  1  -0.052952  0.00529  -0.082664  -0.175342  0.003105  3.938547  0.004
C  C79  1  0.29447540  0.03045859  0.54987142  1  -0.051038  -0.005275  -0.082817  -0.175867  -0.003109  3.941835  -0.004
C  C80  1  0.93695573  0.54726290  0.59450609  1  0.510507  -0.004358  0.041477  0.086452  -0.001818  3.954095  -0.003
C  C81  1  0.56326315  0.95268831  0.40487795  1  0.426669  0.004255  0.04208  0.087606  0.001854  3.952748  0.003
C  C82  1  0.06392484  0.45234480  0.40574580  1  0.489506  -0.004268  0.041145  0.086883  -0.001789  3.953145  -0.003
C  C83  1  0.43561059  0.04658021  0.59469428  1  0.456526  0.004221  0.042333  0.08837  0.001814  3.952888  0.003
C  C84  1  0.26731475  0.77065133  0.46065966  1  -0.048956  0.00038  -0.08239  -0.04371  0.00019  4.02452  0.0
C  C85  1  0.23309119  0.30927296  0.53895408  1  -0.039409  -0.000468  -0.082636  -0.043182  -0.000234  4.022345  0.0
C  C86  1  0.73201426  0.22919772  0.53929663  1  -0.04993  0.000551  -0.082407  -0.042923  0.000287  4.023655  0.0
C  C87  1  0.76705643  0.69046935  0.46104184  1  -0.032497  -0.000589  -0.082583  -0.043508  -0.000302  4.021332  0.0
C  C88  1  0.15325671  0.74829034  0.40113356  1  -0.070184  -0.007645  -0.085577  -0.212171  -0.004699  3.856339  -0.006
C  C89  1  0.34761067  0.34621467  0.59821368  1  -0.101493  0.007698  -0.085856  -0.211589  0.004739  3.855903  0.006
C  C90  1  0.84567592  0.25160257  0.59897769  1  -0.031339  -0.007834  -0.086178  -0.213225  -0.00482  3.857592  -0.006
C  C91  1  0.65313152  0.65382158  0.40148180  1  -0.105335  0.00786  -0.085735  -0.210845  0.004828  3.855389  0.006
C  C92  1  0.69977097  0.60879965  0.65432181  1  -0.032363  0.005054  -0.076739  -0.155939  0.002989  3.904056  0.004
C  C93  1  0.80058863  0.95528983  0.34532740  1  -0.031469  -0.005072  -0.077441  -0.156703  -0.003001  3.904975  -0.004
C  C94  1  0.30126769  0.39131325  0.34597257  1  -0.023662  0.004997  -0.077552  -0.15763  0.00296  3.906852  0.004
C  C95  1  0.19782947  0.04529890  0.65407938  1  -0.046282  -0.005045  -0.078068  -0.158227  -0.002969  3.90794  -0.004
C  C96  1  0.25653760  0.75006623  0.52590886  1  -0.01618  -7.6e-05  -0.077508  -0.026182  -2.2e-05  4.018828  0.0
C  C97  1  0.24369230  0.22371259  0.47369467  1  -0.05901  5.4e-05  -0.077063  -0.025569  9e-06  4.021419  0.0
C  C98  1  0.74315951  0.24974710  0.47410154  1  -0.012329  -0.000203  -0.077086  -0.026459  -9.6e-05  4.01955  0.0
C  C99  1  0.75583782  0.77598298  0.52627249  1  -0.096796  0.000208  -0.076623  -0.024567  0.0001  4.018931  0.0
C  C100  1  0.36138285  0.78071469  0.58932276  1  -0.042284  0.004979  -0.097768  -0.241797  0.003135  3.884038  0.004
C  C101  1  0.13839862  0.19148810  0.41046006  1  -0.004363  -0.005003  -0.098854  -0.244915  -0.003163  3.888714  -0.004
C  C102  1  0.63818725  0.21909611  0.41074004  1  -0.042692  0.005176  -0.098344  -0.244016  0.003249  3.888059  0.004
C  C103  1  0.86077960  0.80831623  0.58964506  1  -0.014555  -0.005219  -0.099579  -0.245916  -0.003276  3.889184  -0.004
C  C104  1  0.52014738  0.52504006  0.53656548  1  0.102924  -0.002966  -0.078251  -0.112145  -0.001744  3.946423  -0.001
C  C105  1  0.98005062  0.98854244  0.46318188  1  -0.017862  0.003002  -0.077781  -0.110903  0.00176  3.946536  0.001
C  C106  1  0.48088936  0.47536071  0.46368588  1  -0.156117  -0.003117  -0.076722  -0.109005  -0.0018  3.942646  -0.001
C  C107  1  0.01891765  0.01138586  0.53607512  1  -0.071904  0.003137  -0.077861  -0.110943  0.001821  3.946484  0.002
C  C108  1  0.67175588  0.55013112  0.57950052  1  0.009077  -0.00657  0.01042  0.154538  -0.003773  4.009913  -0.004
C  C109  1  0.82850847  0.97077443  0.42010151  1  -0.00709  0.006639  0.009767  0.152197  0.003807  4.0135  0.004
C  C110  1  0.32922494  0.45005458  0.42076872  1  0.002254  -0.006487  0.010069  0.153261  -0.003725  4.010584  -0.004
C  C111  1  0.17034503  0.02915997  0.57925182  1  0.011258  0.006507  0.010157  0.153668  0.003739  4.014014  0.004
C  C112  1  0.16048999  0.78048249  0.33684631  1  1.549967  0.000411  0.200672  0.603524  -0.000716  4.214836  0.001
C  C113  1  0.34076819  0.44268464  0.66246006  1  1.54974  -0.000481  0.19991  0.602072  0.000694  4.216094  -0.001
C  C114  1  0.83811194  0.21918074  0.66312861  1  1.557438  0.000517  0.200863  0.603895  -0.000646  4.216229  0.001
C  C115  1  0.66031221  0.55738340  0.33729884  1  1.546537  -0.000504  0.199621  0.600227  0.00067  4.220789  -0.001
C  C116  1  0.33453316  0.75878447  0.65403406  1  1.525048  -0.000387  0.199912  0.599577  0.000354  4.222747  -0.001
C  C117  1  0.16509574  0.10515744  0.34565138  1  1.522787  0.00037  0.200931  0.602136  -0.000351  4.21961  0.001
C  C118  1  0.66482099  0.24100535  0.34599828  1  1.53517  -0.00037  0.200895  0.602732  0.000364  4.219525  -0.001
C  C119  1  0.83378186  0.89453144  0.65442169  1  1.534602  0.000406  0.200646  0.601358  -0.000344  4.219825  0.001
C  C120  1  0.84487870  0.63404944  0.69529359  1  0.488976  -0.004561  0.04616  0.08863  -0.001964  3.968303  -0.003
C  C121  1  0.65547390  0.93992884  0.30431997  1  0.538996  0.004627  0.046481  0.090077  0.002004  3.962018  0.003
C  C122  1  0.15615902  0.36565624  0.30502247  1  0.515472  -0.004482  0.046313  0.089255  -0.001924  3.966042  -0.003
C  C123  1  0.34274798  0.06065588  0.69527670  1  0.483348  0.00451  0.048264  0.09255  0.001938  3.961013  0.003
C  C124  1  0.08867622  0.62431990  0.92777749  1  0.005034  0.005571  -0.083939  -0.182663  0.003323  3.948249  0.004
C  C125  1  0.41524905  0.69861133  0.07235299  1  -0.01139  -0.005653  -0.083467  -0.180871  -0.003343  3.946409  -0.005
C  C126  1  0.91240164  0.37554298  0.07253423  1  0.042769  0.005517  -0.084153  -0.18242  0.003328  3.949686  0.004
C  C127  1  0.58589071  0.30254629  0.92765046  1  -0.01435  -0.005585  -0.083848  -0.1811  -0.003325  3.95173  -0.004
C  C128  1  0.12797923  0.65636575  0.87400626  1  0.442689  -0.00349  0.043628  0.080984  -0.001215  3.963648  -0.002
C  C129  1  0.37510381  0.78440598  0.12585103  1  0.45257  0.003498  0.043781  0.080254  0.001214  3.963368  0.002
C  C130  1  0.87307666  0.34350722  0.12629666  1  0.376937  -0.00345  0.043368  0.080669  -0.001235  3.964924  -0.002
C  C131  1  0.62484375  0.21625849  0.87410080  1  0.412286  0.003491  0.044742  0.082402  0.001239  3.96216  0.002
C  C132  1  0.03912821  0.51408983  0.91257020  1  -0.034156  -0.006974  0.005843  0.14513  -0.003997  4.03656  -0.004
C  C133  1  0.46434590  0.60330671  0.08774768  1  -0.045524  0.007011  0.006798  0.144379  0.004013  4.033562  0.004
C  C134  1  0.96223102  0.48573369  0.08780612  1  -0.040585  -0.007008  0.00611  0.144484  -0.004013  4.036855  -0.004
C  C135  1  0.53727321  0.39785657  0.91223244  1  0.023835  0.007003  0.006146  0.143646  0.004017  4.035891  0.004
C  C136  1  0.99623534  0.47139036  0.96484011  1  -0.095984  -0.003382  -0.0788  -0.117768  -0.001971  3.960582  -0.002
C  C137  1  0.50680593  0.50799562  0.03555612  1  0.012815  0.003339  -0.077717  -0.113769  0.001958  3.958942  0.002
C  C138  1  0.00523735  0.52846550  0.03557801  1  0.011214  -0.003323  -0.078336  -0.115277  -0.00195  3.959232  -0.002
C  C139  1  0.49552478  0.49345404  0.96448723  1  -0.08209  0.003353  -0.078633  -0.117065  0.001956  3.958021  0.002
C  C140  1  0.03139893  0.44208684  0.84189373  1  0.017872  0.004845  -0.077506  -0.165631  0.002859  3.900738  0.004
C  C141  1  0.47130060  0.60192043  0.15840640  1  0.011775  -0.00483  -0.078409  -0.165628  -0.002866  3.899014  -0.004
C  C142  1  0.97024267  0.55764071  0.15853629  1  -0.007013  0.004874  -0.077649  -0.165416  0.002873  3.900997  0.004
C  C143  1  0.52941849  0.39886042  0.84142712  1  -0.016453  -0.004797  -0.077754  -0.163808  -0.002852  3.898278  -0.004
C  C144  1  0.07202121  0.48037431  0.79090967  1  0.457231  -0.005632  0.049683  0.096781  -0.002793  3.927191  -0.004
C  C145  1  0.42974121  0.69116809  0.20904483  1  0.445486  0.005617  0.05001  0.098089  0.00282  3.927643  0.004
C  C146  1  0.92955003  0.51938011  0.20951798  1  0.447831  -0.005631  0.049426  0.097662  -0.002798  3.926621  -0.004
C  C147  1  0.56966915  0.30912231  0.79065374  1  0.457619  0.005635  0.049366  0.096818  0.002828  3.927116  0.004
N  N148  1  0.96229851  0.60399783  0.66619662  1  -1.220954  0.076943  -0.332518  -0.230757  0.046882  3.615081  0.068
N  N149  1  0.53803298  0.93846994  0.33325716  1  -1.188024  -0.076865  -0.333868  -0.232226  -0.04686  3.615318  -0.068
N  N150  1  0.03862313  0.39547830  0.33407618  1  -1.227569  0.076722  -0.33197  -0.231746  0.046749  3.611104  0.068
N  N151  1  0.46042110  0.06126278  0.66636037  1  -1.1925  -0.077043  -0.334482  -0.234949  -0.046973  3.612194  -0.068
N  N152  1  0.11988003  0.58584360  0.80639972  1  -1.223206  0.077689  -0.329177  -0.230365  0.047356  3.605784  0.069
N  N153  1  0.38197928  0.78121395  0.19333238  1  -1.227677  -0.077834  -0.330077  -0.230937  -0.047498  3.609793  -0.069
N  N154  1  0.88135207  0.41395835  0.19394924  1  -1.225248  0.077783  -0.328371  -0.229826  0.047361  3.604822  0.069
N  N155  1  0.61715734  0.21907386  0.80646526  1  -1.225779  -0.07749  -0.329406  -0.231233  -0.047295  3.607102  -0.069
O  O156  1  0.40102862  0.67276844  0.79136514  1  -1.259901  0.067979  -0.592624  -0.748753  0.040264  2.062971  0.058
O  O157  1  0.10006320  0.88257513  0.20810100  1  -1.249577  -0.068321  -0.592803  -0.747651  -0.040443  2.06275  -0.058
O  O158  1  0.59959474  0.32703338  0.20863096  1  -1.249272  0.068259  -0.593185  -0.748915  0.040384  2.062625  0.058
O  O159  1  0.89918167  0.11686578  0.79190058  1  -1.257642  -0.068215  -0.592538  -0.748326  -0.040367  2.061229  -0.058
O  O160  1  0.23794292  0.68104775  0.64277332  1  -1.148928  0.057867  -0.311723  -0.556868  0.034452  2.318923  0.053
O  O161  1  0.26238045  0.03865351  0.35678638  1  -1.155747  -0.057908  -0.312055  -0.557646  -0.034439  2.317488  -0.053
O  O162  1  0.76235430  0.31812573  0.35723245  1  -1.155356  0.057774  -0.312644  -0.559389  0.034359  2.315552  0.053
O  O163  1  0.73615704  0.96079009  0.64327763  1  -1.159138  -0.058073  -0.312282  -0.557334  -0.034537  2.318252  -0.054
O  O164  1  0.14652277  0.81081190  0.77782214  1  -1.23973  0.058803  -0.57186  -0.739192  0.035103  2.070951  0.051
O  O165  1  0.35330993  0.03456922  0.22184087  1  -1.242694  -0.059151  -0.571346  -0.739294  -0.035266  2.070596  -0.051
O  O166  1  0.85297931  0.18912256  0.22211045  1  -1.234083  0.058879  -0.570971  -0.738242  0.035158  2.07387  0.051
O  O167  1  0.64529760  0.96578479  0.77829143  1  -1.238368  -0.059027  -0.571098  -0.737419  -0.035211  2.070653  -0.051
O  O168  1  0.28961458  0.80760997  0.33169554  1  -1.141553  -0.081103  -0.314083  -0.558687  -0.047574  2.33931  -0.074
O  O169  1  0.21168055  0.47533263  0.66782498  1  -1.143618  0.081459  -0.313716  -0.558017  0.047762  2.34508  0.075
O  O170  1  0.70899891  0.19125122  0.66782841  1  -1.144788  -0.081181  -0.313498  -0.558036  -0.047672  2.344754  -0.074
O  O171  1  0.78941619  0.52434295  0.33241615  1  -1.14502  0.081223  -0.313509  -0.557897  0.04771  2.347517  0.074
O  O172  1  0.40781129  0.81862151  0.71777249  1  -1.206742  -0.001179  -0.319382  -0.585049  -0.00097  2.19018  -0.001
O  O173  1  0.09103311  0.10149798  0.28200715  1  -1.202983  0.001167  -0.319881  -0.586269  0.000967  2.188562  0.001
O  O174  1  0.59053217  0.18181122  0.28231518  1  -1.207115  -0.001165  -0.320144  -0.586471  -0.000966  2.189134  -0.001
O  O175  1  0.90792418  0.89831958  0.71807265  1  -1.203404  0.001174  -0.319274  -0.584933  0.00097  2.189814  0.001
O  O176  1  0.03786124  0.78169100  0.29307395  1  -1.17273  -0.001038  -0.317775  -0.551677  -0.000244  2.155902  -0.001
O  O177  1  0.46353701  0.48718424  0.70597578  1  -1.174766  0.000912  -0.318446  -0.551736  0.000176  2.154097  0.001
O  O178  1  0.96060819  0.21844590  0.70713421  1  -1.172867  -0.000917  -0.318006  -0.552309  -0.000175  2.156802  -0.001
O  O179  1  0.53774335  0.51310417  0.29346599  1  -1.171221  0.000872  -0.317621  -0.549696  0.000153  2.156413  0.001
