# generated using pymatgen
data_AlH9C21(NO3)4
_symmetry_space_group_name_H-M   'P 1'
_cell_length_a   4.17034681
_cell_length_b   13.45247928
_cell_length_c   13.45144018
_cell_angle_alpha   119.99155892
_cell_angle_beta   90.00273695
_cell_angle_gamma   90.00180157
_symmetry_Int_Tables_number   1
_chemical_formula_structural   AlH9C21(NO3)4
_chemical_formula_sum   'Al1 H9 C21 N4 O12'
_cell_volume   653.59820820
_cell_formula_units_Z   1
loop_
 _symmetry_equiv_pos_site_id
 _symmetry_equiv_pos_as_xyz
  1  'x, y, z'
loop_
 _atom_site_type_symbol
 _atom_site_label
 _atom_site_symmetry_multiplicity
 _atom_site_fract_x
 _atom_site_fract_y
 _atom_site_fract_z
 _atom_site_occupancy
 _atom_site_pbe_bader_charge
 _atom_site_pbe_bader_spin_density
 _atom_site_pbe_cm5_charge
 _atom_site_pbe_ddec_charge
 _atom_site_pbe_ddec_spin_density
 _atom_site_pbe_ddec_sum_bond_order
 _atom_site_pbe_magmom
Al  Al0  1  0.03452990  0.50002684  0.49999513  1  2.515636  0  0.441823  1.63804  0  2.518041  0
H  H1  1  0.24227291  0.80602889  0.77507573  1  0.089494  0  0.125372  0.140097  0  0.951398  0
H  H2  1  0.21701433  0.01641992  0.88998964  1  0.105842  0  0.110352  0.121308  0  1.01613  0
H  H3  1  0.77873330  0.03888164  0.63161597  1  0.116015  0  0.114173  0.124561  0  1.041623  0
H  H4  1  0.77866746  0.09272429  0.96118425  1  0.111342  0  0.114259  0.124634  0  1.041417  0
H  H5  1  0.24231040  0.46901650  0.19386074  1  0.093538  0  0.125364  0.140169  0  0.95119  0
H  H6  1  0.21700796  0.37347101  0.98344636  1  0.097826  0  0.110351  0.121455  0  1.015873  0
H  H7  1  0.77878734  0.36833100  0.90723278  1  0.143892  0  0.114182  0.124622  0  1.041781  0
H  H8  1  0.24216560  0.22491038  0.53094842  1  0.096199  0  0.125267  0.140027  0  0.951372  0
H  H9  1  0.21694383  0.10998523  0.62645956  1  0.099193  0  0.110332  0.12129  0  1.015911  0
C  C10  1  0.53446061  0.39983244  0.32663099  1  1.665327  0  0.279256  0.672958  0  4.106373  0
C  C11  1  0.53447311  0.42684186  0.60018003  1  1.662109  0  0.279394  0.673108  0  4.105531  0
C  C12  1  0.53451447  0.67337062  0.57315677  1  1.668709  0  0.279566  0.673418  0  4.105202  0
C  C13  1  0.35874779  0.85750461  0.74351672  1  0.012855  0  -0.069762  -0.065883  0  3.926446  0
C  C14  1  0.34232111  0.97657632  0.80798873  1  0.025034  0  -0.080514  -0.150476  0  3.94152  0
C  C15  1  0.49093585  0.04513792  0.76930547  1  0.420815  0  0.096225  0.187878  0  4.016925  0
C  C16  1  0.65791064  0.99062491  0.66541492  1  -0.032795  0  -0.087048  -0.221482  0  3.98849  0
C  C17  1  0.66624210  0.87166877  0.60123447  1  0.225959  0  0.0806  0.056913  0  3.952459  0
C  C18  1  0.51912416  0.80221233  0.63775721  1  -0.012659  0  0.002437  -0.069584  0  3.928735  0
C  C19  1  0.65783477  0.17477526  0.00940557  1  -0.071201  0  -0.087067  -0.221504  0  3.98803  0
C  C20  1  0.66615998  0.22959296  0.12838643  1  0.323076  0  0.08045  0.057058  0  3.952157  0
C  C21  1  0.51910120  0.33556573  0.19779715  1  -0.032405  0  0.002489  -0.069365  0  3.928861  0
C  C22  1  0.35875552  0.38598639  0.14243629  1  0.016262  0  -0.069502  -0.065721  0  3.925519  0
C  C23  1  0.34228471  0.33134188  0.02334446  1  0.027794  0  -0.080768  -0.151019  0  3.940813  0
C  C24  1  0.49089647  0.22410795  0.95481922  1  0.300183  0  0.096372  0.187941  0  4.017324  0
C  C25  1  0.65791899  0.33454948  0.82519087  1  0.014028  0  -0.087099  -0.221672  0  3.988276  0
C  C26  1  0.66624826  0.39874183  0.77040407  1  0.324703  0  0.080441  0.05679  0  3.952456  0
C  C27  1  0.51908038  0.36223098  0.66443329  1  -0.08045  0  0.002582  -0.069335  0  3.928189  0
C  C28  1  0.35867457  0.25647051  0.61398542  1  0.010345  0  -0.069557  -0.065672  0  3.925688  0
C  C29  1  0.34226441  0.19199203  0.66860624  1  -0.024013  0  -0.080652  -0.150676  0  3.940678  0
C  C30  1  0.49091199  0.23065862  0.77584781  1  0.286768  0  0.096467  0.188175  0  4.016719  0
N  N31  1  0.47421432  0.16661540  0.83331444  1  -1.205296  0  -0.249579  -0.145881  0  3.625766  0
N  N32  1  0.83853337  0.81981856  0.49080317  1  0.358606  0  0.06226  0.51734  0  4.191147  0
N  N33  1  0.83842007  0.17105482  0.18030279  1  0.399384  0  0.062463  0.517516  0  4.191447  0
N  N34  1  0.83856999  0.50916208  0.82895950  1  0.405096  0  0.062017  0.517466  0  4.191791  0
O  O35  1  0.77369323  0.63012108  0.59632774  1  -1.247253  0  -0.227525  -0.587563  0  2.380606  0
O  O36  1  0.77362236  0.46625605  0.36988122  1  -1.248311  0  -0.227144  -0.587174  0  2.380933  0
O  O37  1  0.77365806  0.40368807  0.53377432  1  -1.244816  0  -0.2273  -0.587209  0  2.380655  0
O  O38  1  0.29893422  0.62020859  0.50888244  1  -1.25308  0  -0.23227  -0.59834  0  2.410061  0
O  O39  1  0.29891160  0.49111100  0.61128847  1  -1.248932  0  -0.232311  -0.598313  0  2.410147  0
O  O40  1  0.29888177  0.38874146  0.37980323  1  -1.250393  0  -0.232332  -0.598279  0  2.410051  0
O  O41  1  0.79235667  0.71664978  0.42295409  1  -0.407756  0  -0.09979  -0.288713  0  1.956016  0
O  O42  1  0.01840908  0.88271779  0.47270806  1  -0.464314  0  -0.138231  -0.336987  0  1.897614  0
O  O43  1  0.79223445  0.20643698  0.28349800  1  -0.43595  0  -0.09976  -0.288832  0  1.956546  0
O  O44  1  0.01821810  0.09004731  0.11744502  1  -0.459784  0  -0.13852  -0.337285  0  1.897682  0
O  O45  1  0.79237547  0.57700045  0.79361167  1  -0.42996  0  -0.099502  -0.288674  0  1.956391  0
O  O46  1  0.01844859  0.52724465  0.90994946  1  -0.466662  0  -0.138264  -0.337127  0  1.897727  0
