# generated using pymatgen
data_AlH15(C9O4)3
_symmetry_space_group_name_H-M   'P 1'
_cell_length_a   4.03513476
_cell_length_b   27.73497284
_cell_length_c   27.75804959
_cell_angle_alpha   59.99466827
_cell_angle_beta   89.87671467
_cell_angle_gamma   89.73644081
_symmetry_Int_Tables_number   1
_chemical_formula_structural   AlH15(C9O4)3
_chemical_formula_sum   'Al3 H45 C81 O36'
_cell_volume   2690.15578424
_cell_formula_units_Z   3
loop_
 _symmetry_equiv_pos_site_id
 _symmetry_equiv_pos_as_xyz
  1  'x, y, z'
loop_
 _atom_site_type_symbol
 _atom_site_label
 _atom_site_symmetry_multiplicity
 _atom_site_fract_x
 _atom_site_fract_y
 _atom_site_fract_z
 _atom_site_occupancy
 _atom_site_pbe_bader_charge
 _atom_site_pbe_bader_spin_density
 _atom_site_pbe_cm5_charge
 _atom_site_pbe_ddec_charge
 _atom_site_pbe_ddec_spin_density
 _atom_site_pbe_ddec_sum_bond_order
 _atom_site_pbe_magmom
Al  Al0  1  0.99745465  0.49992540  0.49993042  1  2.503627  0  0.4313  1.605398  0  2.535729  0
Al  Al1  1  0.95702719  0.83327056  0.83318257  1  2.502598  0  0.428774  1.587984  0  2.581167  0
Al  Al2  1  0.04931473  0.16655338  0.16645135  1  2.499531  0  0.428785  1.591064  0  2.577004  0
H  H3  1  0.50840117  0.07732610  0.92261707  1  0.065046  0  0.103287  0.104395  0  1.017004  0
H  H4  1  0.52748273  0.25629473  0.83300029  1  0.051567  0  0.104341  0.105694  0  1.015405  0
H  H5  1  0.48930117  0.16658856  0.74380490  1  0.050163  0  0.104176  0.10545  0  1.015508  0
H  H6  1  0.79632683  0.01815073  0.90621413  1  0.080878  0  0.111313  0.135078  0  0.988758  0
H  H7  1  0.15667527  0.09340795  0.76118179  1  0.089666  0  0.111428  0.135004  0  0.988094  0
H  H8  1  0.21845656  0.09405143  0.98100713  1  0.088313  0  0.111082  0.134507  0  0.989133  0
H  H9  1  0.85591451  0.23903530  0.90671435  1  0.065816  0  0.111344  0.134785  0  0.987736  0
H  H10  1  0.82229524  0.31405643  0.75871997  1  0.078765  0  0.109305  0.134363  0  0.992393  0
H  H11  1  0.19227862  0.24060050  0.68622846  1  0.090337  0  0.109177  0.134128  0  0.992454  0
H  H12  1  0.50775866  0.49977197  0.07751905  1  0.053799  0  0.103375  0.104366  0  1.017104  0
H  H13  1  0.49317129  0.58964844  0.16656984  1  0.050063  0  0.104156  0.105438  0  1.014707  0
H  H14  1  0.52530811  0.41058458  0.25636528  1  0.05916  0  0.10418  0.105272  0  1.015491  0
H  H15  1  0.21297286  0.42500986  0.09429757  1  0.088801  0  0.111351  0.134581  0  0.988793  0
H  H16  1  0.85262579  0.35338945  0.23933480  1  0.108556  0  0.111617  0.135719  0  0.987588  0
H  H17  1  0.80185455  0.57488222  0.01881174  1  0.082667  0  0.111012  0.134607  0  0.98846  0
H  H18  1  0.15917117  0.64591819  0.09289256  1  0.081626  0  0.111384  0.13482  0  0.98842  0
H  H19  1  0.19126993  0.57329340  0.24057748  1  0.11402  0  0.109351  0.134656  0  0.991522  0
H  H20  1  0.82635915  0.42707766  0.31395205  1  0.078057  0  0.108896  0.133925  0  0.992184  0
H  H21  1  0.49590934  0.92289710  0.49963976  1  0.050609  0  0.103525  0.104535  0  1.01665  0
H  H22  1  0.50764633  0.83309836  0.41053859  1  0.049442  0  0.104278  0.105463  0  1.015526  0
H  H23  1  0.47443311  0.74390234  0.58940104  1  0.062668  0  0.104175  0.105397  0  1.016269  0
H  H24  1  0.78737046  0.90637620  0.57449214  1  0.072332  0  0.11106  0.134936  0  0.988627  0
H  H25  1  0.15003669  0.76134973  0.64606898  1  0.073595  0  0.11134  0.134805  0  0.988164  0
H  H26  1  0.20345420  0.98193133  0.42393105  1  0.087938  0  0.111073  0.13462  0  0.988949  0
H  H27  1  0.84451063  0.90596912  0.35460594  1  0.090377  0  0.111345  0.134911  0  0.987665  0
H  H28  1  0.80708226  0.75909416  0.42703695  1  0.061973  0  0.108767  0.133586  0  0.992819  0
H  H29  1  0.17495976  0.68605816  0.57306114  1  0.068534  0  0.108929  0.134082  0  0.992202  0
H  H30  1  0.98366015  0.97014657  0.76763536  1  0.624064  0  0.311538  0.349825  0  0.939636  0
H  H31  1  0.93402098  0.90101415  0.90032443  1  0.626609  0  0.309797  0.348142  0  0.946863  0
H  H32  1  0.07360128  0.10035341  0.09777358  1  0.620655  0  0.309846  0.348434  0  0.946933  0
H  H33  1  0.02063744  0.23305353  0.02985820  1  0.616518  0  0.311487  0.349756  0  0.940614  0
H  H34  1  0.85620948  0.43969708  0.63281225  1  0.64102  0  0.315296  0.357037  0  0.946945  0
H  H35  1  0.14386572  0.36660132  0.56085407  1  0.625523  0  0.315202  0.357008  0  0.94674  0
H  H36  1  0.01890009  0.23633461  0.23305295  1  0.604495  0  0.31141  0.349682  0  0.940588  0
H  H37  1  0.06911188  0.30195807  0.10028339  1  0.619946  0  0.31034  0.348931  0  0.945071  0
H  H38  1  0.93894407  0.69781767  0.90149214  1  0.598081  0  0.310178  0.348823  0  0.945034  0
H  H39  1  0.98622136  0.76261666  0.96955400  1  0.60681  0  0.311434  0.349459  0  0.940268  0
H  H40  1  0.14126543  0.57243635  0.36662751  1  0.620083  0  0.315342  0.357408  0  0.946287  0
H  H41  1  0.86062487  0.42729368  0.43958419  1  0.634958  0  0.315216  0.357248  0  0.946489  0
H  H42  1  0.98490824  0.76783468  0.76280496  1  0.619433  0  0.310743  0.348799  0  0.94373  0
H  H43  1  0.93167967  0.90057642  0.69748071  1  0.616689  0  0.310575  0.3489  0  0.9428  0
H  H44  1  0.06606523  0.09850374  0.30074211  1  0.621859  0  0.309594  0.348162  0  0.948614  0
H  H45  1  0.01853936  0.02899449  0.23731668  1  0.629814  0  0.312596  0.350375  0  0.936529  0
H  H46  1  0.85184551  0.63310017  0.42744090  1  0.616136  0  0.315211  0.357475  0  0.946202  0
H  H47  1  0.13629640  0.56057835  0.57243601  1  0.616276  0  0.315624  0.357633  0  0.945823  0
C  C48  1  0.49463298  0.57522538  0.49988465  1  1.39424  0  0.254345  0.651595  0  4.056597  0
C  C49  1  0.49921555  0.42478685  0.57519924  1  1.407215  0  0.253688  0.651614  0  4.058275  0
C  C50  1  0.49947975  0.49977183  0.42480374  1  1.396998  0  0.254162  0.651438  0  4.057611  0
C  C51  1  0.45532621  0.90817984  0.83369639  1  1.532402  0  0.284709  0.704712  0  4.030321  0
C  C52  1  0.45890218  0.75782543  0.90807883  1  1.515614  0  0.284646  0.705303  0  4.029898  0
C  C53  1  0.45773105  0.83382050  0.75780304  1  1.535408  0  0.284709  0.705012  0  4.030892  0
C  C54  1  0.55004107  0.16671418  0.09127281  1  1.527071  0  0.284604  0.704904  0  4.032494  0
C  C55  1  0.54683253  0.24164348  0.16664007  1  1.528519  0  0.285161  0.705962  0  4.030308  0
C  C56  1  0.54910149  0.09134012  0.24155359  1  1.509677  0  0.285721  0.707163  0  4.029773  0
C  C57  1  0.52553473  0.16678485  0.88382017  1  -0.031073  0  -0.005101  0.078013  0  4.013506  0
C  C58  1  0.50880271  0.11661584  0.88328495  1  -0.040654  0  -0.083502  -0.169269  0  3.919142  0
C  C59  1  0.49158127  0.11593865  0.83322808  1  -0.03514  0  -0.005093  0.077746  0  4.013572  0
C  C60  1  0.49148094  0.16670712  0.78301127  1  -0.007111  0  -0.083144  -0.168313  0  3.914802  0
C  C61  1  0.50897593  0.21757633  0.78225437  1  -0.02835  0  -0.003517  0.076547  0  4.003284  0
C  C62  1  0.52595416  0.21697589  0.83301495  1  -0.005753  0  -0.083711  -0.169219  0  3.9143  0
C  C63  1  0.64282904  0.96568037  0.87481910  1  0.542264  0  0.083224  0.325423  0  4.092798  0
C  C64  1  0.64487563  0.01568456  0.87511568  1  0.006045  0  -0.10489  -0.265042  0  3.945672  0
C  C65  1  0.47824936  0.06251824  0.83357314  1  0.007652  0  -0.000211  0.112652  0  4.031775  0
C  C66  1  0.29968840  0.05841240  0.79253201  1  -0.0151  0  -0.104548  -0.263387  0  3.940931  0
C  C67  1  0.28153136  0.00786892  0.79337857  1  0.536008  0  0.084442  0.32724  0  4.091055  0
C  C68  1  0.45769684  0.96135468  0.83413975  1  -0.059892  0  -0.058662  -0.357236  0  4.032016  0
C  C69  1  0.36791599  0.12521270  0.98365725  1  0.005094  0  -0.104991  -0.264735  0  3.945185  0
C  C70  1  0.36601953  0.12571864  0.03351531  1  0.491579  0  0.083638  0.327642  0  4.091438  0
C  C71  1  0.54846894  0.16649510  0.03803625  1  -0.039481  0  -0.059205  -0.357723  0  4.032037  0
C  C72  1  0.72595291  0.20715367  0.99184686  1  0.548302  0  0.08466  0.326423  0  4.090601  0
C  C73  1  0.71182139  0.20775914  0.94142973  1  0.003873  0  -0.104003  -0.261495  0  3.939617  0
C  C74  1  0.53598412  0.16660349  0.93713891  1  0.034221  0  -2e-06  0.111141  0  4.033388  0
C  C75  1  0.67683285  0.31696826  0.72438478  1  0.05451  0  -0.114748  -0.292092  0  3.949759  0
C  C76  1  0.68222842  0.36692327  0.67414729  1  0.4898  0  0.099379  0.358763  0  4.052233  0
C  C77  1  0.50194733  0.37283963  0.62708950  1  0.017527  0  -0.054118  -0.353937  0  3.990672  0
C  C78  1  0.32472609  0.32547592  0.63324236  1  0.522706  0  0.099256  0.358236  0  4.05271  0
C  C79  1  0.33583892  0.27517459  0.68312430  1  0.03004  0  -0.114444  -0.291693  0  3.948393  0
C  C80  1  0.50755042  0.27082853  0.72898411  1  0.013812  0  0.007269  0.133214  0  4.031597  0
C  C81  1  0.49369904  0.55070759  0.11601455  1  0.011437  0  -0.005282  0.077473  0  4.012997  0
C  C82  1  0.50850294  0.49985334  0.11676654  1  -0.043831  0  -0.083455  -0.169051  0  3.918858  0
C  C83  1  0.52339392  0.44912100  0.16694743  1  0.008467  0  -0.005327  0.077305  0  4.013984  0
C  C84  1  0.52479770  0.44985701  0.21704506  1  -0.041026  0  -0.083272  -0.168369  0  3.915354  0
C  C85  1  0.50983963  0.50011873  0.21757726  1  -0.000963  0  -0.0038  0.077231  0  4.003517  0
C  C86  1  0.49388700  0.55025827  0.16671604  1  -0.047539  0  -0.083229  -0.168943  0  3.914066  0
C  C87  1  0.36038896  0.34059237  0.12590805  1  0.490752  0  0.082738  0.324632  0  4.09444  0
C  C88  1  0.36267222  0.39096259  0.12547890  1  0.054563  0  -0.10525  -0.263863  0  3.94583  0
C  C89  1  0.53179947  0.39586846  0.16687656  1  -0.044578  0  0.000264  0.1128  0  4.032859  0
C  C90  1  0.70784191  0.35014332  0.20804325  1  0.002729  0  -0.104093  -0.263974  0  3.941786  0
C  C91  1  0.72187542  0.30033088  0.20733792  1  0.478132  0  0.083834  0.326169  0  4.093377  0
C  C92  1  0.54384636  0.29506313  0.16659663  1  0.021698  0  -0.057993  -0.356644  0  4.031458  0
C  C93  1  0.64997397  0.60872900  0.01603797  1  -0.001776  0  -0.104716  -0.264194  0  3.945452  0
C  C94  1  0.64865937  0.65897970  0.96600593  1  0.50539  0  0.083401  0.325283  0  4.092674  0
C  C95  1  0.46259940  0.70428737  0.96131104  1  -0.014245  0  -0.058431  -0.357126  0  4.029571  0
C  C96  1  0.28551534  0.69892205  0.00755006  1  0.5077  0  0.08394  0.326384  0  4.089242  0
C  C97  1  0.30300769  0.64926323  0.05813999  1  0.028334  0  -0.104339  -0.26316  0  3.940922  0
C  C98  1  0.48192624  0.60378723  0.06255832  1  0.002644  0  0.0002  0.11279  0  4.032145  0
C  C99  1  0.33577614  0.54174363  0.27515359  1  0.00842  0  -0.114805  -0.292469  0  3.948573  0
C  C100  1  0.32422646  0.54123619  0.32547359  1  0.52443  0  0.099775  0.358752  0  4.052145  0
C  C101  1  0.50305461  0.49994913  0.37280975  1  0.024962  0  -0.054221  -0.35275  0  3.989873  0
C  C102  1  0.68526757  0.45879473  0.36685239  1  0.511724  0  0.099411  0.357769  0  4.052384  0
C  C103  1  0.67970442  0.45853535  0.31690493  1  0.040409  0  -0.113802  -0.290808  0  3.948435  0
C  C104  1  0.50887604  0.50016505  0.27079067  1  -0.001169  0  0.006868  0.132517  0  4.032056  0
C  C105  1  0.50909911  0.88399470  0.44909727  1  0.007195  0  -0.004591  0.07834  0  4.013587  0
C  C106  1  0.49431370  0.88351639  0.49975960  1  -0.018997  0  -0.084573  -0.170251  0  3.919617  0
C  C107  1  0.47825087  0.83343880  0.55054726  1  -0.014072  0  -0.004697  0.07861  0  4.013478  0
C  C108  1  0.47582944  0.78315606  0.55007379  1  -0.040939  0  -0.083549  -0.1693  0  3.916253  0
C  C109  1  0.49058973  0.78237067  0.49999480  1  0.000896  0  -0.003519  0.077466  0  4.004095  0
C  C110  1  0.50733328  0.83314213  0.44979490  1  -0.049535  0  -0.083519  -0.16942  0  3.915965  0
C  C111  1  0.64129510  0.87485222  0.65880683  1  0.449863  0  0.08411  0.32711  0  4.088969  0
C  C112  1  0.63840060  0.87522805  0.60849647  1  0.079158  0  -0.104942  -0.265278  0  3.944539  0
C  C113  1  0.46991569  0.83377014  0.60362651  1  -0.035715  0  0.000191  0.112505  0  4.032508  0
C  C114  1  0.29474718  0.79264627  0.64928754  1  0.036615  0  -0.104592  -0.263394  0  3.941291  0
C  C115  1  0.28148548  0.79340045  0.69902298  1  0.496724  0  0.084448  0.327131  0  4.09049  0
C  C116  1  0.45920570  0.83414776  0.70429394  1  0.029474  0  -0.059214  -0.358163  0  4.031141  0
C  C117  1  0.35544238  0.98420902  0.39041335  1  0.02965  0  -0.105068  -0.264869  0  3.947644  0
C  C118  1  0.35834467  0.03405948  0.34002078  1  0.453829  0  0.082976  0.326317  0  4.092496  0
C  C119  1  0.54487090  0.03815051  0.29512115  1  0.077757  0  -0.058906  -0.358672  0  4.03189  0
C  C120  1  0.72089361  0.99150314  0.30102318  1  0.429884  0  0.084571  0.327175  0  4.091344  0
C  C121  1  0.70161797  0.94109034  0.35082557  1  0.025395  0  -0.103969  -0.262563  0  3.940154  0
C  C122  1  0.52241278  0.93727312  0.39589549  1  0.007067  0  0.000203  0.112477  0  4.033432  0
C  C123  1  0.66255293  0.72461341  0.45848293  1  0.026954  0  -0.113814  -0.290715  0  3.949067  0
C  C124  1  0.67236471  0.67433494  0.45881761  1  0.52063  0  0.09901  0.357212  0  4.05317  0
C  C125  1  0.49348456  0.62711813  0.49998360  1  0.070102  0  -0.054055  -0.351764  0  3.988836  0
C  C126  1  0.31330381  0.63313059  0.54118835  1  0.517915  0  0.099151  0.357536  0  4.051432  0
C  C127  1  0.32037787  0.68304982  0.54158812  1  0.042982  0  -0.113623  -0.29099  0  3.948273  0
C  C128  1  0.49077629  0.72907258  0.50003728  1  0.001564  0  0.007126  0.133211  0  4.031342  0
O  O129  1  0.72959461  0.47267986  0.46148832  1  -1.265813  0  -0.249487  -0.622993  0  2.388882  0
O  O130  1  0.72570107  0.56572811  0.47281878  1  -1.259795  0  -0.250157  -0.624274  0  2.386692  0
O  O131  1  0.72817083  0.46146019  0.56558543  1  -1.267935  0  -0.249753  -0.623305  0  2.39018  0
O  O132  1  0.26672112  0.52671763  0.43418224  1  -1.264843  0  -0.24955  -0.623051  0  2.386896  0
O  O133  1  0.26798366  0.43414595  0.53885959  1  -1.268189  0  -0.248966  -0.622627  0  2.388783  0
O  O134  1  0.26424173  0.53875558  0.52680945  1  -1.272839  0  -0.249518  -0.623179  0  2.389934  0
O  O135  1  0.69471520  0.80864105  0.79222224  1  -1.261182  0  -0.229637  -0.601808  0  2.367914  0
O  O136  1  0.69201732  0.89882864  0.80849757  1  -1.25652  0  -0.230711  -0.603409  0  2.367891  0
O  O137  1  0.69421245  0.79237528  0.89869064  1  -1.257052  0  -0.230424  -0.60376  0  2.368712  0
O  O138  1  0.22008794  0.85864265  0.76752907  1  -1.26816  0  -0.230116  -0.602626  0  2.369847  0
O  O139  1  0.22190162  0.76746861  0.87364684  1  -1.26488  0  -0.22951  -0.601542  0  2.369333  0
O  O140  1  0.21867712  0.87374698  0.85847579  1  -1.26638  0  -0.229206  -0.601332  0  2.371045  0
O  O141  1  0.78610287  0.12564128  0.23211406  1  -1.259521  0  -0.22926  -0.603144  0  2.372938  0
O  O142  1  0.78747302  0.14172836  0.12567164  1  -1.258642  0  -0.229746  -0.602929  0  2.371414  0
O  O143  1  0.78450346  0.23217810  0.14167250  1  -1.260295  0  -0.230109  -0.603565  0  2.370569  0
O  O144  1  0.31398366  0.10092973  0.20684972  1  -1.258538  0  -0.231406  -0.604521  0  2.365769  0
O  O145  1  0.31118796  0.20708578  0.19160562  1  -1.262706  0  -0.23054  -0.603579  0  2.367813  0
O  O146  1  0.31302062  0.19176138  0.10081433  1  -1.254978  0  -0.229855  -0.602799  0  2.367666  0
O  O147  1  0.09888570  0.00582459  0.75286755  1  -1.147731  0  -0.360186  -0.442387  0  2.237436  0
O  O148  1  0.81605410  0.92143200  0.91556801  1  -1.143286  0  -0.363686  -0.445497  0  2.236579  0
O  O149  1  0.19192195  0.08506088  0.07744380  1  -1.146163  0  -0.36381  -0.446707  0  2.237687  0
O  O150  1  0.90624418  0.24776357  0.99407163  1  -1.139063  0  -0.360666  -0.442603  0  2.238618  0
O  O151  1  0.85705523  0.40931635  0.67210820  1  -1.146714  0  -0.346892  -0.427875  0  2.250946  0
O  O152  1  0.14736810  0.32725653  0.59116345  1  -1.127017  0  -0.346517  -0.42766  0  2.251421  0
O  O153  1  0.90272203  0.25723574  0.24790436  1  -1.131698  0  -0.360954  -0.442445  0  2.238938  0
O  O154  1  0.18520888  0.33761981  0.08520115  1  -1.141979  0  -0.362688  -0.444843  0  2.23834  0
O  O155  1  0.82343392  0.66209840  0.92211404  1  -1.119668  0  -0.363014  -0.445129  0  2.236666  0
O  O156  1  0.10272819  0.74182543  0.00519605  1  -1.128911  0  -0.360388  -0.441981  0  2.236464  0
O  O157  1  0.14494081  0.58153839  0.32729557  1  -1.122414  0  -0.346836  -0.428202  0  2.251454  0
O  O158  1  0.86204774  0.41840795  0.40919245  1  -1.149062  0  -0.347016  -0.428418  0  2.25079  0
O  O159  1  0.10232073  0.75282500  0.74215659  1  -1.148873  0  -0.361564  -0.443297  0  2.237668  0
O  O160  1  0.81630168  0.91558153  0.66173179  1  -1.140106  0  -0.362397  -0.444457  0  2.235659  0
O  O161  1  0.18511783  0.07847462  0.33626274  1  -1.148405  0  -0.364605  -0.446969  0  2.236221  0
O  O162  1  0.90487964  0.99322989  0.25863191  1  -1.154364  0  -0.359823  -0.441252  0  2.238183  0
O  O163  1  0.84986898  0.67243226  0.41849447  1  -1.12378  0  -0.346822  -0.428235  0  2.250423  0
O  O164  1  0.13689751  0.59087798  0.58147895  1  -1.131073  0  -0.347035  -0.428334  0  2.249974  0
