# generated using pymatgen
data_AlH9C14NO5
_symmetry_space_group_name_H-M   'P 1'
_cell_length_a   6.61089224
_cell_length_b   11.19774553
_cell_length_c   17.72383002
_cell_angle_alpha   82.80868953
_cell_angle_beta   80.19642790
_cell_angle_gamma   71.35058039
_symmetry_Int_Tables_number   1
_chemical_formula_structural   AlH9C14NO5
_chemical_formula_sum   'Al2 H18 C28 N2 O10'
_cell_volume   1221.47803371
_cell_formula_units_Z   2
loop_
 _symmetry_equiv_pos_site_id
 _symmetry_equiv_pos_as_xyz
  1  'x, y, z'
loop_
 _atom_site_type_symbol
 _atom_site_label
 _atom_site_symmetry_multiplicity
 _atom_site_fract_x
 _atom_site_fract_y
 _atom_site_fract_z
 _atom_site_occupancy
 _atom_site_pbe_bader_charge
 _atom_site_pbe_bader_spin_density
 _atom_site_pbe_cm5_charge
 _atom_site_pbe_ddec_charge
 _atom_site_pbe_ddec_spin_density
 _atom_site_pbe_ddec_sum_bond_order
 _atom_site_pbe_magmom
Al  Al0  1  0.48656393  0.50620008  0.50455496  1  2.503368  0  0.390186  1.637903  0  2.590523  0
Al  Al1  1  0.98810734  0.50565772  0.50319326  1  2.500414  0  0.391846  1.630224  0  2.589601  0
H  H2  1  0.29982213  0.34956730  0.53641097  1  0.632554  0  0.34389  0.414765  0  0.889016  0
H  H3  1  0.68272386  0.65578537  0.45278437  1  0.635545  0  0.343619  0.417373  0  0.883693  0
H  H4  1  0.62570728  0.56422892  0.27420910  1  0.096178  0  0.112829  0.120585  0  0.989049  0
H  H5  1  0.71670360  0.55671925  0.13165162  1  0.063138  0  0.106105  0.108893  0  0.994024  0
H  H6  1  0.19733651  0.40209584  0.12978176  1  0.065473  0  0.106864  0.109585  0  0.991876  0
H  H7  1  0.10250362  0.41587393  0.27175736  1  0.114162  0  0.111819  0.116119  0  0.994367  0
H  H8  1  0.84292584  0.56688729  0.87806878  1  0.074287  0  0.10607  0.108675  0  0.993809  0
H  H9  1  0.90643720  0.57281755  0.73458457  1  0.112257  0  0.111982  0.11893  0  0.991074  0
H  H10  1  0.37319323  0.43104157  0.73720320  1  0.102934  0  0.110281  0.116961  0  0.993601  0
H  H11  1  0.31373674  0.41850909  0.88085825  1  0.069524  0  0.105571  0.108452  0  0.994065  0
H  H12  1  0.20761027  0.24210869  0.39941518  1  0.062413  0  0.100826  0.105876  0  1.042207  0
H  H13  1  0.54157739  0.12694915  0.32132548  1  0.075913  0  0.09937  0.097384  0  0.996718  0
H  H14  1  0.42166407  0.77433529  0.40269892  1  0.026445  0  0.101728  0.099378  0  1.05021  0
H  H15  1  0.64853670  0.89094155  0.32239078  1  0.089606  0  0.099769  0.097839  0  0.993329  0
H  H16  1  0.73958402  0.78839448  0.57019118  1  0.457904  0  0.305173  0.306585  0  0.967565  0
H  H17  1  0.54994821  0.93029519  0.57808780  1  0.456361  0  0.308014  0.299649  0  0.944363  0
H  H18  1  0.57258081  0.22308698  0.59250642  1  0.440295  0  0.308435  0.301487  0  0.962989  0
H  H19  1  0.57045653  0.07825598  0.63344256  1  0.424216  0  0.305506  0.292703  0  0.953343  0
C  C20  1  0.85624391  0.27891850  0.49715285  1  1.539619  0  0.270664  0.670439  0  4.065441  0
C  C21  1  0.68498962  0.50307115  0.64249528  1  1.52877  0  0.261195  0.628104  0  4.117075  0
C  C22  1  0.12220625  0.73324473  0.50600104  1  1.525344  0  0.273243  0.677042  0  4.056101  0
C  C23  1  0.29799044  0.50401557  0.36521018  1  1.572305  0  0.263471  0.62872  0  4.113407  0
C  C24  1  0.35691918  0.49246182  0.28097184  1  -0.0166  0  -0.013966  -0.044303  0  3.970321  0
C  C25  1  0.53261675  0.52985530  0.24166329  1  -0.08816  0  -0.077167  -0.082965  0  3.977353  0
C  C26  1  0.58360786  0.52498010  0.16265268  1  -0.001249  0  -0.08205  -0.129335  0  3.949144  0
C  C27  1  0.46122593  0.48031825  0.12116982  1  0.101004  0  0.003988  0.144615  0  4.112971  0
C  C28  1  0.28933925  0.43868613  0.16154416  1  -0.054068  0  -0.081461  -0.128642  0  3.945841  0
C  C29  1  0.23693806  0.44591173  0.24043461  1  0.000404  0  -0.077974  -0.084695  0  3.982743  0
C  C30  1  0.50647391  0.48042458  0.04025904  1  -0.386051  0  -0.042381  -0.104763  0  4.117534  0
C  C31  1  0.54007966  0.48511681  0.97018583  1  0.026112  0  -0.044461  -0.108841  0  4.118119  0
C  C32  1  0.57523834  0.49117074  0.88902429  1  0.071135  0  0.003877  0.146243  0  4.109424  0
C  C33  1  0.74208973  0.53582164  0.84706097  1  -0.056479  0  -0.082073  -0.128747  0  3.9451  0
C  C34  1  0.77678944  0.53984821  0.76741119  1  0.019178  0  -0.079638  -0.086949  0  3.98471  0
C  C35  1  0.64442764  0.50146587  0.72774706  1  -0.002362  0  -0.016074  -0.046021  0  3.977675  0
C  C36  1  0.47580808  0.45929415  0.76893639  1  -0.04285  0  -0.080921  -0.089304  0  3.986963  0
C  C37  1  0.44236352  0.45299088  0.84859536  1  -0.032016  0  -0.083326  -0.129873  0  3.948975  0
C  C38  1  0.92627301  0.13941848  0.49560608  1  0.037498  0  -0.029465  -0.213358  0  3.957369  0
C  C39  1  0.12482224  0.07447139  0.45091123  1  0.004065  0  -0.011896  0.058198  0  4.009251  0
C  C40  1  0.79209374  0.07393859  0.53838823  1  0.392905  0  0.100006  0.194824  0  4.048194  0
C  C41  1  0.25604657  0.13938317  0.40217220  1  0.006079  0  -0.100445  -0.139888  0  3.984211  0
C  C42  1  0.44329866  0.07472129  0.35798498  1  -0.076164  0  -0.101569  -0.089063  0  4.056812  0
C  C43  1  0.05153802  0.87343403  0.49932167  1  0.089862  0  -0.031497  -0.21804  0  3.954239  0
C  C44  1  0.85074022  0.93874787  0.53723538  1  0.413188  0  0.101079  0.198915  0  4.053148  0
C  C45  1  0.18966567  0.93923203  0.45362554  1  -0.033287  0  -0.012374  0.057709  0  4.009405  0
C  C46  1  0.37932928  0.87613659  0.40538969  1  -0.053161  0  -0.105453  -0.155288  0  4.009287  0
C  C47  1  0.50447692  0.94192467  0.35905902  1  -0.058289  0  -0.103511  -0.093477  0  4.069683  0
N  N48  1  0.70772512  0.88054883  0.58025490  1  -1.241491  0  -0.598306  -0.607022  0  3.289828  0
N  N49  1  0.60048492  0.13079260  0.58414687  1  -1.204533  0  -0.592303  -0.599592  0  3.317588  0
O  O50  1  0.66027924  0.33678201  0.48790180  1  -1.259568  0  -0.236187  -0.593666  0  2.343836  0
O  O51  1  0.85702717  0.52546660  0.60888113  1  -1.261505  0  -0.237204  -0.586391  0  2.339985  0
O  O52  1  0.98775044  0.67760690  0.49635646  1  -1.268091  0  -0.234835  -0.603831  0  2.354141  0
O  O53  1  0.42964756  0.53186703  0.39961573  1  -1.265319  0  -0.24131  -0.603841  0  2.376301  0
O  O54  1  0.31208225  0.67553284  0.52147218  1  -1.264861  0  -0.234776  -0.590115  0  2.33047  0
O  O55  1  0.11979468  0.48717438  0.39695985  1  -1.25785  0  -0.238264  -0.588893  0  2.339916  0
O  O56  1  0.98882968  0.33318170  0.50944049  1  -1.262323  0  -0.231108  -0.592685  0  2.352884  0
O  O57  1  0.54626219  0.47971242  0.60926296  1  -1.263113  0  -0.242772  -0.603249  0  2.354317  0
O  O58  1  0.25677290  0.44116015  0.53656999  1  -1.437653  0  -0.451276  -0.982033  0  2.185239  0
O  O59  1  0.71962347  0.56684665  0.47039329  1  -1.443409  0  -0.451367  -0.989303  0  2.219053  0
