# generated using pymatgen
data_Al3H31C50(NO7)2
_symmetry_space_group_name_H-M   'P 1'
_cell_length_a   12.23164949
_cell_length_b   12.41147144
_cell_length_c   27.92933072
_cell_angle_alpha   85.83324345
_cell_angle_beta   89.86523391
_cell_angle_gamma   58.47913150
_symmetry_Int_Tables_number   1
_chemical_formula_structural   Al3H31C50(NO7)2
_chemical_formula_sum   'Al6 H62 C100 N4 O28'
_cell_volume   3601.69044932
_cell_formula_units_Z   2
loop_
 _symmetry_equiv_pos_site_id
 _symmetry_equiv_pos_as_xyz
  1  'x, y, z'
loop_
 _atom_site_type_symbol
 _atom_site_label
 _atom_site_symmetry_multiplicity
 _atom_site_fract_x
 _atom_site_fract_y
 _atom_site_fract_z
 _atom_site_occupancy
 _atom_site_pbe_bader_charge
 _atom_site_pbe_bader_spin_density
 _atom_site_pbe_cm5_charge
 _atom_site_pbe_ddec_charge
 _atom_site_pbe_ddec_spin_density
 _atom_site_pbe_ddec_sum_bond_order
 _atom_site_pbe_magmom
Al  Al0  1  0.58287817  0.81543236  0.50260938  1  2.496183  0  0.39653  1.686288  0  2.552749  0
Al  Al1  1  0.32727445  0.09139509  0.49794472  1  2.481768  0  0.505785  1.664075  0  2.50309  0
Al  Al2  1  0.58125262  0.07489323  0.49695796  1  2.481833  0  0.501113  1.663138  0  2.513702  0
Al  Al3  1  0.08430640  0.84158170  0.99241458  1  2.494211  0  0.394815  1.686799  0  2.557126  0
Al  Al4  1  0.08772602  0.58135760  0.99581478  1  2.486869  0  0.503601  1.662777  0  2.509984  0
Al  Al5  1  0.34083010  0.56539372  0.99593240  1  2.481532  0  0.504835  1.662648  0  2.506221  0
H  H6  1  0.15880124  0.42611554  0.69395214  1  0.067327  0  0.111465  0.122141  0  0.984879  0
H  H7  1  0.48379196  0.53323990  0.68844333  1  0.068234  0  0.106808  0.111523  0  0.989391  0
H  H8  1  0.44866817  0.68550158  0.61767672  1  0.116891  0  0.118778  0.1305  0  0.978469  0
H  H9  1  0.12880904  0.38677708  0.12433695  1  0.080823  0  0.108446  0.117073  0  1.001459  0
H  H10  1  0.17984453  0.26567510  0.36686630  1  0.113647  0  0.111939  0.119459  0  0.995454  0
H  H11  1  0.04672731  0.34128864  0.20038892  1  0.052811  0  0.102163  0.101764  0  0.998794  0
H  H12  1  0.06452576  0.29993307  0.28908146  1  0.047435  0  0.100685  0.097271  0  1.006619  0
H  H13  1  0.47294875  0.39984971  0.12841398  1  0.116014  0  0.109864  0.120206  0  0.995976  0
H  H14  1  0.59094681  0.36289891  0.20537455  1  0.04193  0  0.10068  0.112401  0  1.022079  0
H  H15  1  0.52839889  0.26524183  0.37192357  1  0.059427  0  0.111341  0.10866  0  1.026644  0
H  H16  1  0.78333416  0.69958490  0.30033229  1  0.077218  0  0.107262  0.122975  0  1.007875  0
H  H17  1  0.93270653  0.04433256  0.77662157  1  0.047914  0  0.0997  0.108975  0  1.015287  0
H  H18  1  0.86560609  0.99725277  0.28157582  1  0.061868  0  0.101083  0.113606  0  1.02331  0
H  H19  1  0.20894014  0.05107924  0.26401314  1  0.060161  0  0.103638  0.103142  0  1.023005  0
H  H20  1  0.22707464  0.99467991  0.17943022  1  0.100939  0  0.115837  0.1201  0  0.976993  0
H  H21  1  0.46560410  0.59836571  0.22785718  1  0.049181  0  0.100773  0.0985  0  1.04072  0
H  H22  1  0.44899969  0.65467035  0.31259431  1  0.109786  0  0.111643  0.117146  0  0.981607  0
H  H23  1  0.56898172  0.17829803  0.71620759  1  0.085744  0  0.108007  0.121145  0  1.008779  0
H  H24  1  0.85696143  0.65266085  0.87696367  1  0.09422  0  0.11182  0.118307  0  1.019546  0
H  H25  1  0.70061779  0.72755024  0.63914078  1  0.119932  0  0.112832  0.12554  0  0.993397  0
H  H26  1  0.68996262  0.64506189  0.72142168  1  0.056978  0  0.099428  0.110903  0  1.018066  0
H  H27  1  0.94589210  0.94340702  0.85775011  1  0.087671  0  0.109168  0.117681  0  1.002427  0
H  H28  1  0.77634396  0.02759049  0.61990346  1  0.104117  0  0.110881  0.117951  0  1.02501  0
H  H29  1  0.89330427  0.15295150  0.70427497  1  0.397799  0  0.298231  0.23598  0  0.954572  0
H  H30  1  0.06830264  0.99013585  0.65951073  1  0.046347  0  0.084765  0.087353  0  1.039981  0
H  H31  1  0.96333913  0.13693123  0.62515114  1  0.051062  0  0.105656  0.11826  0  0.971689  0
H  H32  1  0.94760694  0.00437042  0.61968078  1  0.054871  0  0.104023  0.115763  0  1.00854  0
H  H33  1  0.04314872  0.33179823  0.78213983  1  0.001007  0  0.079308  0.104065  0  1.017763  0
H  H34  1  0.11785082  0.32098196  0.83856391  1  0.025404  0  0.083067  0.110385  0  1.016909  0
H  H35  1  0.95621154  0.44485396  0.82423116  1  0.060086  0  0.083438  0.114031  0  1.061831  0
H  H36  1  0.09988079  0.53058718  0.81412014  1  0.03771  0  0.09464  0.096809  0  0.988137  0
H  H37  1  0.03059444  0.53644132  0.75784529  1  0.048903  0  0.09294  0.091671  0  0.992634  0
H  H38  1  0.63159095  0.30355881  0.33679959  1  0.414733  0  0.31357  0.254194  0  0.964225  0
H  H39  1  0.21122659  0.97209632  0.87288489  1  0.087045  0  0.111708  0.119866  0  0.989222  0
H  H40  1  0.78817573  0.33750740  0.31050595  1  0.051062  0  0.111584  0.121145  0  0.970283  0
H  H41  1  0.66093866  0.45720225  0.27115549  1  0.068161  0  0.092472  0.087293  0  1.044268  0
H  H42  1  0.76999194  0.30499185  0.25129185  1  0.064597  0  0.098099  0.098127  0  1.03581  0
H  H43  1  0.57950513  0.34950372  0.83783758  1  0.045897  0  0.084622  0.10963  0  1.023689  0
H  H44  1  0.73189036  0.20722529  0.84397759  1  0.041277  0  0.09316  0.127453  0  0.991395  0
H  H45  1  0.67134386  0.28896163  0.78607079  1  0.00992  0  0.081388  0.105222  0  1.0149  0
H  H46  1  0.55669795  0.16031942  0.84863168  1  0.024816  0  0.096874  0.098788  0  0.975718  0
H  H47  1  0.65255318  0.09518632  0.79894607  1  0.066411  0  0.090832  0.090169  0  1.030297  0
H  H48  1  0.82846706  0.63883026  0.17162706  1  0.469877  0  0.312272  0.25589  0  0.960754  0
H  H49  1  0.77576490  0.50202775  0.20901567  1  0.043705  0  0.109278  0.115531  0  0.980249  0
H  H50  1  0.24871401  0.08552374  0.63371069  1  0.109941  0  0.11019  0.116686  0  1.004922  0
H  H51  1  0.68175832  0.62277740  0.24786907  1  0.051263  0  0.094132  0.092625  0  1.020227  0
H  H52  1  0.84631251  0.50787470  0.26376403  1  0.03568  0  0.095899  0.092947  0  1.012131  0
H  H53  1  0.81811206  0.15912257  0.21412733  1  -0.004142  0  0.081674  0.104736  0  1.046139  0
H  H54  1  0.98088648  0.05998763  0.23539182  1  0.004973  0  0.081448  0.10455  0  1.028776  0
H  H55  1  0.94449666  0.13712105  0.17638785  1  0.036233  0  0.089607  0.118167  0  0.996856  0
H  H56  1  0.01417770  0.91061396  0.17170226  1  0.072149  0  0.102104  0.105758  0  0.958081  0
H  H57  1  0.85612266  0.01104581  0.15036746  1  0.054322  0  0.105235  0.111667  0  0.953609  0
H  H58  1  0.70035912  0.55745554  0.79566130  1  0.39891  0  0.300876  0.238112  0  0.951772  0
H  H59  1  0.63602830  0.57743443  0.87420048  1  0.060367  0  0.104568  0.118608  0  0.979402  0
H  H60  1  0.54804222  0.73371814  0.84476839  1  0.043189  0  0.085622  0.08857  0  1.036655  0
H  H61  1  0.17292102  0.12401286  0.80208320  1  0.06958  0  0.101117  0.101082  0  1.030322  0
H  H62  1  0.68459864  0.68637008  0.88284885  1  0.057324  0  0.102257  0.112929  0  1.014179  0
H  H63  1  0.18753484  0.16566937  0.71502874  1  0.079012  0  0.100163  0.101116  0  1.013476  0
H  H64  1  0.40367220  0.57262054  0.85659361  1  0.099465  0  0.106413  0.108816  0  1.022946  0
H  H65  1  0.46556640  0.49269041  0.77510382  1  0.095927  0  0.098253  0.097731  0  1.051587  0
H  H66  1  0.70666342  0.61052657  0.47797728  1  0.561606  0  0.290035  0.378682  0  0.929643  0
H  H67  1  0.02310172  0.04947040  0.96571009  1  0.559301  0  0.287399  0.374019  0  0.93716  0
C  C68  1  0.36239763  0.91268615  0.56939243  1  1.563999  0  0.275753  0.637525  0  4.086678  0
C  C69  1  0.75556689  0.77468104  0.70467986  1  0.007009  0  -0.010957  0.092765  0  4.078224  0
C  C70  1  0.64473809  0.65412383  0.85634147  1  0.249703  0  -0.1438  -0.223426  0  3.958567  0
C  C71  1  0.80993752  0.74980077  0.80536203  1  0.049186  0  -0.005252  0.006084  0  3.976922  0
C  C72  1  0.39480980  0.22779611  0.55983267  1  1.649215  0  0.282829  0.721013  0  4.154704  0
C  C73  1  0.75348757  0.68386355  0.78564461  1  0.345902  0  0.095387  0.185141  0  4.055856  0
C  C74  1  0.73170416  0.69492851  0.73666395  1  -0.04898  0  -0.109931  -0.26968  0  3.993235  0
C  C75  1  0.85471311  0.72736619  0.85334869  1  -0.092369  0  -0.083342  -0.143032  0  3.952039  0
C  C76  1  0.90227193  0.79761447  0.87156751  1  -0.032346  0  -0.021142  -0.048993  0  4.042201  0
C  C77  1  0.77788321  0.95387409  0.64391753  1  -0.034812  0  -0.084774  -0.142811  0  3.954012  0
C  C78  1  0.81392239  0.93843956  0.69268424  1  -0.00457  0  -0.008117  0.000446  0  3.992248  0
C  C79  1  0.79947634  0.85014815  0.72387654  1  0.034993  0  -0.002784  -0.009049  0  3.946569  0
C  C80  1  0.46491225  0.25230531  0.78007000  1  0.037667  0  0.008916  0.103772  0  3.9231  0
C  C81  1  0.86303968  0.01032644  0.71285695  1  0.353401  0  0.091182  0.1803  0  4.072881  0
C  C82  1  0.89209779  0.99339080  0.76143999  1  -0.0451  0  -0.109298  -0.267678  0  4.001239  0
C  C83  1  0.87527069  0.90815213  0.79312199  1  0.023437  0  -0.009221  0.090616  0  4.080057  0
C  C84  1  0.70513718  0.89116974  0.57328516  1  1.528172  0  0.27108  0.640065  0  4.091612  0
C  C85  1  0.82660167  0.83645712  0.77410289  1  -0.036643  0  -0.001125  -0.007713  0  3.943938  0
C  C86  1  0.90923280  0.88974063  0.84221712  1  -0.015678  0  -0.080316  -0.141905  0  3.920424  0
C  C87  1  0.74115661  0.87545244  0.62516236  1  0.005756  0  -0.020667  -0.048305  0  4.038576  0
C  C88  1  0.28835635  0.98923356  0.65014400  1  -0.005726  0  -0.074674  -0.14309  0  3.9315  0
C  C89  1  0.28172522  0.96772306  0.69978112  1  -0.029176  0  -0.006562  0.072396  0  4.043049  0
C  C90  1  0.26488515  0.92004006  0.80022460  1  -0.029309  0  -0.007099  0.073636  0  4.047124  0
C  C91  1  0.47515249  0.23920265  0.73080882  1  -0.01053  0  -0.078205  -0.180487  0  3.888242  0
C  C92  1  0.21604910  0.04627382  0.77882273  1  -0.080918  0  -0.091293  -0.134658  0  4.009657  0
C  C93  1  0.22406444  0.06919226  0.73076015  1  -0.041205  0  -0.089349  -0.128642  0  4.002907  0
C  C94  1  0.25682685  0.89478701  0.84946343  1  -0.062548  0  -0.076362  -0.14175  0  3.926564  0
C  C95  1  0.30820823  0.77015379  0.86939624  1  -0.016777  0  -0.015115  -0.040758  0  4.017463  0
C  C96  1  0.36150186  0.91948414  0.43139042  1  1.700411  0  0.275545  0.712016  0  4.162159  0
C  C97  1  0.40058898  0.76270578  0.64104968  1  0.005443  0  -0.070765  -0.136074  0  3.91209  0
C  C98  1  0.39161786  0.73751228  0.69019329  1  -0.00038  0  -0.006435  0.072439  0  4.048005  0
C  C99  1  0.33228814  0.84067688  0.72020011  1  0.057134  0  0.006639  0.002943  0  3.908713  0
C  C100  1  0.43999222  0.61130989  0.71160815  1  -0.087718  0  -0.088141  -0.131685  0  4.009834  0
C  C101  1  0.43023361  0.58882800  0.75956354  1  -0.052367  0  -0.093801  -0.138978  0  4.01145  0
C  C102  1  0.36510828  0.30179005  0.69960215  1  0.087288  0  0.004786  0.135409  0  4.136985  0
C  C103  1  0.37283647  0.69011041  0.79063604  1  -0.030804  0  -0.007103  0.076058  0  4.035296  0
C  C104  1  0.32351020  0.81693859  0.77022467  1  0.009956  0  0.005352  0.00287  0  3.910254  0
C  C105  1  0.36520756  0.66877654  0.84023497  1  -0.009367  0  -0.077314  -0.14602  0  3.934924  0
C  C106  1  0.34745540  0.88763060  0.62118398  1  -0.105635  0  -0.013235  -0.038186  0  4.017939  0
C  C107  1  0.25033896  0.27875151  0.34767026  1  -0.04098  0  -0.073032  -0.132632  0  3.91786  0
C  C108  1  0.37461770  0.22745678  0.42566477  1  1.547375  0  0.277639  0.649424  0  4.075985  0
C  C109  1  0.23950930  0.30274980  0.29752389  1  0.015334  0  -0.004932  0.077907  0  4.02662  0
C  C110  1  0.21907504  0.35076556  0.19532091  1  -0.027507  0  -0.007495  0.077765  0  4.042349  0
C  C111  1  0.12612353  0.33458482  0.22097736  1  0.021041  0  -0.086737  -0.123442  0  4.008396  0
C  C112  1  0.13579303  0.31192413  0.26983055  1  -0.124131  0  -0.091812  -0.138844  0  4.024373  0
C  C113  1  0.34144254  0.33091365  0.79819798  1  0.093265  0  0.002044  -0.003725  0  4.032098  0
C  C114  1  0.20917368  0.37689872  0.14523517  1  0.018348  0  -0.08252  -0.15112  0  3.932557  0
C  C115  1  0.30116744  0.39386088  0.12176569  1  -0.03338  0  -0.01701  -0.042988  0  4.020275  0
C  C116  1  0.44813277  0.28001961  0.34953313  1  0.009595  0  -0.077859  -0.133582  0  3.951075  0
C  C117  1  0.44024991  0.30596235  0.29970650  1  -0.00863  0  -0.004067  -0.004962  0  3.99015  0
C  C118  1  0.33467054  0.31709925  0.27290383  1  -0.026338  0  0.010353  0.022442  0  3.910277  0
C  C119  1  0.53564775  0.32217431  0.27434046  1  0.433913  0  0.101406  0.192883  0  4.094861  0
C  C120  1  0.72600153  0.90182974  0.43392002  1  1.638411  0  0.274713  0.712704  0  4.160513  0
C  C121  1  0.52124692  0.34949646  0.22503942  1  -0.005804  0  -0.118492  -0.284968  0  3.99135  0
C  C122  1  0.41776489  0.35822589  0.19789670  1  -0.03672  0  -0.006223  0.099332  0  4.072332  0
C  C123  1  0.32362867  0.34161752  0.22206085  1  0.052362  0  -0.000582  -0.011409  0  3.914024  0
C  C124  1  0.32867163  0.34923034  0.84779565  1  -0.471308  0  0.002837  0.02669  0  4.079853  0
C  C125  1  0.40417633  0.38434712  0.14774684  1  -0.060589  0  -0.07857  -0.140452  0  3.904654  0
C  C126  1  0.35424567  0.26724402  0.37343335  1  -0.033848  0  -0.01723  -0.043864  0  4.019765  0
C  C127  1  0.77705739  0.88046819  0.38693008  1  0.127661  0  -0.044381  -0.209476  0  3.950846  0
C  C128  1  0.80912647  0.75532360  0.27643484  1  0.021748  0  -0.099053  -0.251251  0  3.912029  0
C  C129  1  0.82780109  0.73486139  0.22752775  1  0.483286  0  0.114461  0.219739  0  4.084292  0
C  C130  1  0.87649569  0.90592019  0.21712878  1  0.019515  0  0.007503  0.116411  0  3.934991  0
C  C131  1  0.85629718  0.92488849  0.26561399  1  -0.003291  0  -0.100468  -0.222063  0  3.938653  0
C  C132  1  0.37689694  0.27180053  0.60690490  1  0.023881  0  -0.036313  -0.204257  0  3.930429  0
C  C133  1  0.82277133  0.84985601  0.29514959  1  0.055336  0  0.003152  0.15363  0  4.150604  0
C  C134  1  0.86049538  0.81200096  0.19792780  1  0.096249  0  -0.014426  -0.054988  0  4.078188  0
C  C135  1  0.37405089  0.28569026  0.64978898  1  -0.299487  0  -0.003052  0.003723  0  4.039754  0
C  C136  1  0.87883762  0.79262155  0.14903305  1  -0.527094  0  -0.01572  -0.006733  0  4.165573  0
C  C137  1  0.80006037  0.86885011  0.34445704  1  -0.388056  0  -0.012851  -0.008368  0  4.060528  0
C  C138  1  0.89559071  0.77775740  0.10625512  1  0.199207  0  -0.041888  -0.219802  0  3.951436  0
C  C139  1  0.32650433  0.90527313  0.38409139  1  0.118405  0  -0.036672  -0.190738  0  3.934825  0
C  C140  1  0.26486053  0.95216740  0.25595865  1  -0.012164  0  -0.075513  -0.113926  0  3.950297  0
C  C141  1  0.27565004  0.92100910  0.20879621  1  0.005945  0  -0.070146  -0.107344  0  3.931797  0
C  C142  1  0.41122167  0.69724545  0.23602743  1  0.046328  0  -0.079782  -0.119685  0  3.964865  0
C  C143  1  0.40083508  0.72838509  0.28318055  1  -0.116301  0  -0.075857  -0.117447  0  3.945601  0
C  C144  1  0.24330376  0.37848715  0.71839821  1  -0.010685  0  -0.08076  -0.194186  0  3.930137  0
C  C145  1  0.32765661  0.85645074  0.29390666  1  0.146408  0  0.006385  0.129519  0  4.10155  0
C  C146  1  0.31397766  0.36965772  0.89015872  1  0.197772  0  -0.034509  -0.214951  0  3.913068  0
C  C147  1  0.34933313  0.79306384  0.19806563  1  0.035144  0  0.006609  0.128958  0  4.099433  0
C  C148  1  0.35591961  0.76366688  0.14977866  1  -0.506889  0  -0.0176  -0.026685  0  4.074908  0
C  C149  1  0.32215705  0.88623778  0.34210758  1  -0.432435  0  -0.019069  -0.028601  0  4.076949  0
C  C150  1  0.35225947  0.74603566  0.10757548  1  0.273547  0  -0.035865  -0.191809  0  3.934564  0
C  C151  1  0.95320221  0.77031351  0.92199344  1  1.531377  0  0.270261  0.6435  0  4.08872  0
C  C152  1  0.28555388  0.42157902  0.93586965  1  1.629603  0  0.283284  0.720386  0  4.156271  0
C  C153  1  0.29694894  0.74543622  0.92166004  1  1.55559  0  0.270602  0.644442  0  4.082675  0
C  C154  1  0.94483193  0.75659160  0.05919548  1  1.632987  0  0.274426  0.702249  0  4.184166  0
C  C155  1  0.28387510  0.43412207  0.06946710  1  1.541785  0  0.276862  0.651116  0  4.067515  0
C  C156  1  0.22940204  0.39410705  0.76726128  1  -0.002625  0  0.009525  0.109336  0  3.928757  0
C  C157  1  0.73130279  0.78572707  0.65497869  1  -0.065321  0  -0.079269  -0.140113  0  3.914244  0
C  C158  1  0.31509419  0.73375855  0.06037889  1  1.648302  0  0.277066  0.706567  0  4.165374  0
C  C159  1  0.96916439  0.05444993  0.64507039  1  0.251068  0  -0.144224  -0.218224  0  3.95299  0
C  C160  1  0.09835230  0.47150246  0.78696566  1  -0.014196  0  -0.161508  -0.152649  0  3.973254  0
C  C161  1  0.05115089  0.38714912  0.80943687  1  -0.058957  0  -0.24811  -0.348937  0  3.938773  0
C  C162  1  0.71733144  0.35480828  0.28233114  1  0.248973  0  -0.134828  -0.217329  0  4.002683  0
C  C163  1  0.58226683  0.18466922  0.81344840  1  -0.00638  0  -0.162035  -0.154031  0  3.969866  0
C  C164  1  0.64473533  0.26242644  0.82062104  1  -0.088479  0  -0.241046  -0.345903  0  3.949063  0
C  C165  1  0.77808499  0.56595392  0.23347993  1  0.322349  0  -0.132765  -0.21129  0  4.019742  0
C  C166  1  0.91724970  0.97829377  0.18354442  1  -0.020476  0  -0.15398  -0.139014  0  3.964391  0
C  C167  1  0.91539513  0.08974862  0.20369643  1  -0.034005  0  -0.246151  -0.354251  0  3.991744  0
N  N168  1  0.87608538  0.09905844  0.68334199  1  -1.116239  0  -0.461166  -0.323149  0  3.483786  0
N  N169  1  0.63731699  0.30884129  0.30068694  1  -1.18544  0  -0.448  -0.284622  0  3.61089  0
N  N170  1  0.81629405  0.64446162  0.20748524  1  -1.257028  0  -0.438087  -0.274156  0  3.643767  0
N  N171  1  0.72891891  0.60438164  0.81576857  1  -1.124807  0  -0.450156  -0.301582  0  3.502379  0
O  O172  1  0.67628712  0.81546771  0.55799693  1  -1.247366  0  -0.214351  -0.562146  0  2.372358  0
O  O173  1  0.37067698  0.43494235  0.95641728  1  -1.238354  0  -0.22743  -0.587864  0  2.246415  0
O  O174  1  0.37784824  0.63274255  0.94089098  1  -1.277085  0  -0.247868  -0.610773  0  2.278999  0
O  O175  1  0.45489091  0.82641999  0.54847128  1  -1.241127  0  -0.209003  -0.543899  0  2.319567  0
O  O176  1  0.20106576  0.81559332  0.04660823  1  -1.213207  0  -0.200259  -0.538984  0  2.295924  0
O  O177  1  0.97058170  0.83575404  0.04001726  1  -1.21816  0  -0.202107  -0.532638  0  2.276703  0
O  O178  1  0.96380012  0.65538628  0.04097693  1  -1.256182  0  -0.249972  -0.615827  0  2.232359  0
O  O179  1  0.18270552  0.45467895  0.04703677  1  -1.269012  0  -0.236743  -0.601806  0  2.299187  0
O  O180  1  0.36857682  0.45269239  0.05027669  1  -1.271602  0  -0.235698  -0.600958  0  2.308774  0
O  O181  1  0.39708085  0.64006037  0.03698742  1  -1.264504  0  -0.248325  -0.613534  0  2.218209  0
O  O182  1  0.17232296  0.66070769  0.99455038  1  -1.615458  0  -0.391897  -1.270154  0  2.29778  0
O  O183  1  0.28874000  0.21358278  0.44666677  1  -1.269456  0  -0.236537  -0.598282  0  2.292153  0
O  O184  1  0.28103090  0.02516962  0.54975718  1  -1.280008  0  -0.248865  -0.61336  0  2.273697  0
O  O185  1  0.30828480  0.21276571  0.54174182  1  -1.236168  0  -0.227835  -0.590224  0  2.247507  0
O  O186  1  0.50082082  0.19980469  0.54054036  1  -1.242063  0  -0.228502  -0.587784  0  2.241789  0
O  O187  1  0.70218097  0.98307982  0.54716149  1  -1.278065  0  -0.251306  -0.621015  0  2.288118  0
O  O188  1  0.70262828  0.82200058  0.45413531  1  -1.21608  0  -0.213285  -0.567581  0  2.27273  0
O  O189  1  0.47454344  0.83677659  0.44633134  1  -1.219025  0  -0.20945  -0.559118  0  2.303081  0
O  O190  1  0.27898936  0.01508190  0.45359742  1  -1.258032  0  -0.246696  -0.612959  0  2.23007  0
O  O191  1  0.47965568  0.20221395  0.44610183  1  -1.269623  0  -0.234211  -0.597984  0  2.314255  0
O  O192  1  0.70251895  0.00602260  0.45105491  1  -1.260494  0  -0.247995  -0.611967  0  2.217644  0
O  O193  1  0.49571569  0.99635990  0.49858496  1  -1.609483  0  -0.391537  -1.269115  0  2.295259  0
O  O194  1  0.20791176  0.83319331  0.94347276  1  -1.250024  0  -0.223985  -0.583071  0  2.332678  0
O  O195  1  0.98383770  0.84405024  0.93795090  1  -1.250451  0  -0.219088  -0.578571  0  2.379549  0
O  O196  1  0.96639277  0.67050828  0.94573315  1  -1.283859  0  -0.249992  -0.616971  0  2.285483  0
O  O197  1  0.17403396  0.45728191  0.95155060  1  -1.240818  0  -0.22732  -0.586134  0  2.237758  0
O  O198  1  0.66247171  0.64945838  0.50633997  1  -1.354401  0  -0.579153  -0.994555  0  1.794494  0
O  O199  1  0.00482391  0.00729138  0.99211824  1  -1.346587  0  -0.579034  -0.991598  0  1.797421  0
