# generated using pymatgen
data_AlH7C10NO6
_symmetry_space_group_name_H-M   'P 1'
_cell_length_a   6.72216976
_cell_length_b   8.67340267
_cell_length_c   17.79309219
_cell_angle_alpha   82.84098263
_cell_angle_beta   78.85570932
_cell_angle_gamma   76.17440816
_symmetry_Int_Tables_number   1
_chemical_formula_structural   AlH7C10NO6
_chemical_formula_sum   'Al2 H14 C20 N2 O12'
_cell_volume   985.00338909
_cell_formula_units_Z   2
loop_
 _symmetry_equiv_pos_site_id
 _symmetry_equiv_pos_as_xyz
  1  'x, y, z'
loop_
 _atom_site_type_symbol
 _atom_site_label
 _atom_site_symmetry_multiplicity
 _atom_site_fract_x
 _atom_site_fract_y
 _atom_site_fract_z
 _atom_site_occupancy
 _atom_site_pbe_bader_charge
 _atom_site_pbe_bader_spin_density
 _atom_site_pbe_cm5_charge
 _atom_site_pbe_ddec_charge
 _atom_site_pbe_ddec_spin_density
 _atom_site_pbe_ddec_sum_bond_order
 _atom_site_pbe_magmom
Al  Al0  1  0.50140774  0.49910688  0.49985101  1  2.507162  0  0.40332  1.642946  0  2.57189  0
Al  Al1  1  0.00123897  0.49908005  0.50016476  1  2.506109  0  0.395078  1.651175  0  2.583858  0
H  H2  1  0.25103164  0.36681983  0.58587069  1  0.618767  0  0.357193  0.435563  0  0.843198  0
H  H3  1  0.75116804  0.63420954  0.41509253  1  0.604423  0  0.356431  0.434024  0  0.845917  0
H  H4  1  0.67974338  0.49733820  0.26713643  1  0.112695  0  0.105229  0.115151  0  1.03412  0
H  H5  1  0.74663849  0.51473300  0.12452125  1  0.074368  0  0.103587  0.109684  0  1.006667  0
H  H6  1  0.13316877  0.43619215  0.12744532  1  0.096253  0  0.111391  0.132399  0  0.991574  0
H  H7  1  0.86175079  0.56688093  0.87332099  1  0.086502  0  0.111179  0.132351  0  0.99174  0
H  H8  1  0.31999932  0.50286223  0.73211763  1  0.152671  0  0.104639  0.111642  0  1.035271  0
H  H9  1  0.24937460  0.48788254  0.87459837  1  0.062489  0  0.103677  0.109661  0  1.006887  0
H  H10  1  0.03003391  0.41590720  0.33055024  1  0.640472  0  0.314135  0.356009  0  0.964916  0
H  H11  1  0.96967063  0.58403687  0.67023045  1  0.648599  0  0.313749  0.355398  0  0.964582  0
H  H12  1  0.76622648  0.84540140  0.51099752  1  0.472073  0  0.304468  0.301696  0  0.99551  0
H  H13  1  0.59389416  0.02277001  0.53441996  1  0.464475  0  0.298747  0.28887  0  0.983463  0
H  H14  1  0.23657283  0.15294610  0.48884790  1  0.483888  0  0.304294  0.301745  0  0.995007  0
H  H15  1  0.40881497  0.97574115  0.46501564  1  0.464224  0  0.298906  0.289112  0  0.982847  0
C  C16  1  0.83155684  0.21194651  0.50986037  1  1.529805  0  0.258441  0.607008  0  4.079161  0
C  C17  1  0.67228252  0.53375745  0.63773075  1  1.518161  0  0.261566  0.651845  0  4.081315  0
C  C18  1  0.17110172  0.78635212  0.48990984  1  1.522377  0  0.258735  0.607278  0  4.078588  0
C  C19  1  0.32935748  0.46500237  0.36231364  1  1.517814  0  0.262541  0.653137  0  4.079906  0
C  C20  1  0.36891886  0.46166440  0.27839118  1  -0.042889  0  -0.040466  -0.210644  0  3.994046  0
C  C21  1  0.56038219  0.48597747  0.23603828  1  0.0971  0  -0.079164  -0.052573  0  4.006998  0
C  C22  1  0.59867699  0.49470336  0.15672096  1  -0.089051  0  -0.094728  -0.159262  0  3.964759  0
C  C23  1  0.44299600  0.47914601  0.11638939  1  0.13036  0  0.008715  0.173122  0  4.133047  0
C  C24  1  0.25323891  0.45056110  0.15758469  1  0.05373  0  -0.096513  -0.253229  0  3.886521  0
C  C25  1  0.21481627  0.44133973  0.23799813  1  0.47366  0  0.095991  0.322469  0  4.062976  0
C  C26  1  0.47944512  0.49401009  0.03508088  1  0.080892  0  -0.036873  -0.097214  0  4.091287  0
C  C27  1  0.51460619  0.50960847  0.96494000  1  -0.506359  0  -0.035866  -0.095853  0  4.090949  0
C  C28  1  0.55238128  0.52357875  0.88362155  1  0.085482  0  0.008189  0.171731  0  4.132478  0
C  C29  1  0.74279968  0.55172726  0.84283531  1  0.050916  0  -0.095438  -0.2521  0  3.886485  0
C  C30  1  0.78317467  0.55979900  0.76245248  1  0.489075  0  0.095516  0.321935  0  4.065063  0
C  C31  1  0.63058260  0.53852326  0.72160860  1  -0.05765  0  -0.039803  -0.20924  0  3.992419  0
C  C32  1  0.43834239  0.51489278  0.76352692  1  -0.073956  0  -0.079125  -0.050063  0  4.003765  0
C  C33  1  0.39801604  0.50738125  0.84281581  1  0.058588  0  -0.094147  -0.157949  0  3.961694  0
C  C34  1  0.89637662  0.03824458  0.50443574  1  0.425839  0  0.081514  0.050406  0  4.007511  0
C  C35  1  0.10637884  0.96010982  0.49520226  1  0.488749  0  0.08117  0.052203  0  4.006247  0
N  N36  1  0.73306191  0.96628627  0.50594804  1  -1.221264  0  -0.599159  -0.584635  0  3.399978  0
N  N37  1  0.26973710  0.03206525  0.49362901  1  -1.237196  0  -0.598638  -0.584734  0  3.398993  0
O  O38  1  0.64139708  0.27793962  0.50622645  1  -1.256725  0  -0.240055  -0.584707  0  2.334757  0
O  O39  1  0.85582037  0.54857506  0.60214900  1  -1.266018  0  -0.244254  -0.621395  0  2.382129  0
O  O40  1  0.03495661  0.71112728  0.48107738  1  -1.277054  0  -0.2433  -0.61114  0  2.407865  0
O  O41  1  0.47043794  0.48570619  0.39589083  1  -1.266938  0  -0.233456  -0.585151  0  2.347513  0
O  O42  1  0.36142201  0.72042082  0.49332567  1  -1.259824  0  -0.240497  -0.585491  0  2.334139  0
O  O43  1  0.14649899  0.44957298  0.39827193  1  -1.265072  0  -0.245295  -0.622623  0  2.385821  0
O  O44  1  0.96750036  0.28702524  0.51904939  1  -1.278845  0  -0.243154  -0.610072  0  2.405411  0
O  O45  1  0.53212312  0.51250616  0.60385449  1  -1.265481  0  -0.233668  -0.585749  0  2.350012  0
O  O46  1  0.25034182  0.43654006  0.53890404  1  -1.424842  0  -0.448685  -0.994962  0  2.1897  0
O  O47  1  0.75238878  0.56183074  0.46118313  1  -1.41106  0  -0.447388  -0.993266  0  2.192422  0
O  O48  1  0.02909742  0.41394066  0.27448313  1  -1.155374  0  -0.344295  -0.438209  0  2.291844  0
O  O49  1  0.96937269  0.58691957  0.72632454  1  -1.162125  0  -0.34443  -0.4383  0  2.291499  0
