# generated using pymatgen
data_Zr3H38C63N3O16
_symmetry_space_group_name_H-M   'P 1'
_cell_length_a   17.25573340
_cell_length_b   17.23051065
_cell_length_c   17.26261991
_cell_angle_alpha   91.76398754
_cell_angle_beta   91.76866718
_cell_angle_gamma   91.94236733
_symmetry_Int_Tables_number   1
_chemical_formula_structural   Zr3H38C63N3O16
_chemical_formula_sum   'Zr6 H76 C126 N6 O32'
_cell_volume   5124.61404177
_cell_formula_units_Z   2
loop_
 _symmetry_equiv_pos_site_id
 _symmetry_equiv_pos_as_xyz
  1  'x, y, z'
loop_
 _atom_site_type_symbol
 _atom_site_label
 _atom_site_symmetry_multiplicity
 _atom_site_fract_x
 _atom_site_fract_y
 _atom_site_fract_z
 _atom_site_occupancy
 _atom_site_pbe_bader_charge
 _atom_site_pbe_bader_spin_density
 _atom_site_pbe_cm5_charge
 _atom_site_pbe_ddec_charge
 _atom_site_pbe_ddec_spin_density
 _atom_site_pbe_ddec_sum_bond_order
 _atom_site_pbe_magmom
Zr  Zr0  1  0.19225033  0.15550563  0.04696097  1  2.629778  0  1.6232  2.374431  0  2.746289  0
Zr  Zr1  1  0.24509092  0.99340083  0.15533414  1  2.629315  0  1.622979  2.374273  0  2.74647  0
Zr  Zr2  1  0.00205858  0.07405742  0.01912263  1  2.624914  0  1.625158  2.373477  0  2.7548  0
Zr  Zr3  1  0.08397555  0.10251047  0.20919991  1  2.630299  0  1.621539  2.374894  0  2.74192  0
Zr  Zr4  1  0.16248885  0.96455630  0.96610893  1  2.62569  0  1.625167  2.374565  0  2.753085  0
Zr  Zr5  1  0.05409933  0.91243446  0.12785424  1  2.627178  0  1.625349  2.373885  0  2.754326  0
H  H6  1  0.85373473  0.41005405  0.74399160  1  0.080857  0  0.111178  0.129151  0  0.995701  0
H  H7  1  0.84046625  0.56195803  0.76654382  1  0.087981  0  0.107708  0.125322  0  1.007145  0
H  H8  1  0.38706317  0.65796221  0.43215477  1  0.080926  0  0.11104  0.129699  0  0.995548  0
H  H9  1  0.39937698  0.50640608  0.40628225  1  0.055764  0  0.107616  0.12511  0  1.006919  0
H  H10  1  0.78126067  0.76137532  0.46710718  1  0.085667  0  0.111294  0.130032  0  0.994477  0
H  H11  1  0.80015918  0.74719961  0.61926341  1  0.047092  0  0.10795  0.125553  0  1.005948  0
H  H12  1  0.47287672  0.29526019  0.70905209  1  0.068109  0  0.110868  0.12997  0  0.993836  0
H  H13  1  0.44967002  0.30881067  0.55734136  1  0.041617  0  0.107279  0.12411  0  1.006553  0
H  H14  1  0.50211346  0.69008605  0.81543401  1  0.096743  0  0.111356  0.130144  0  0.994877  0
H  H15  1  0.65434577  0.71023308  0.80156072  1  0.044415  0  0.10754  0.125352  0  1.005297  0
H  H16  1  0.74547118  0.38405094  0.35029861  1  0.076985  0  0.111135  0.129625  0  0.995549  0
H  H17  1  0.59364238  0.36061040  0.36390659  1  0.065222  0  0.107617  0.124716  0  1.005955  0
H  H18  1  0.24161531  0.15135422  0.20454126  1  0.587166  0  0.324843  0.408248  0  0.883298  0
H  H19  1  0.11410997  0.10118240  0.90432311  1  0.599936  0  0.330266  0.422721  0  0.859844  0
H  H20  1  0.94040399  0.02512211  0.15576807  1  0.613844  0  0.330719  0.423911  0  0.858025  0
H  H21  1  0.19021940  0.85019290  0.07871881  1  0.612631  0  0.331067  0.424656  0  0.857155  0
H  H22  1  0.86730316  0.40950477  0.28248850  1  0.061121  0  0.102507  0.1034  0  0.997492  0
H  H23  1  0.71525023  0.33161877  0.09011589  1  0.051975  0  0.104393  0.105873  0  1.007162  0
H  H24  1  0.80886258  0.23168023  0.05384451  1  0.126911  0  0.111988  0.117905  0  0.985846  0
H  H25  1  0.95602689  0.30269758  0.24990347  1  0.069961  0  0.108092  0.112836  0  1.007738  0
H  H26  1  0.50249203  0.28743503  0.32467562  1  0.055642  0  0.09764  0.09448  0  1.023135  0
H  H27  1  0.51806430  0.36965935  0.09103378  1  0.060582  0  0.098312  0.100463  0  1.027537  0
H  H28  1  0.42525290  0.26486690  0.04614575  1  0.07579  0  0.106477  0.10872  0  0.999191  0
H  H29  1  0.41838946  0.17807477  0.27680620  1  0.087327  0  0.102688  0.107127  0  1.023408  0
H  H30  1  0.82750793  0.79311724  0.12083536  1  0.082504  0  0.106357  0.110264  0  0.996332  0
H  H31  1  0.83051843  0.89057190  0.89478753  1  0.103649  0  0.103298  0.107257  0  1.031092  0
H  H32  1  0.74397830  0.78430896  0.84368521  1  0.059017  0  0.097107  0.093133  0  1.027339  0
H  H33  1  0.73268739  0.69129437  0.07337948  1  0.075801  0  0.09763  0.100292  0  1.032785  0
H  H34  1  0.38003129  0.66720059  0.88331711  1  0.074146  0  0.102989  0.103139  0  0.997099  0
H  H35  1  0.53475236  0.73751759  0.07620410  1  0.066664  0  0.105076  0.106767  0  1.008601  0
H  H36  1  0.44422282  0.83959311  0.11487176  1  0.099147  0  0.112534  0.118995  0  0.98194  0
H  H37  1  0.29454009  0.77580662  0.91834305  1  0.083382  0  0.107983  0.113289  0  1.006624  0
H  H38  1  0.72835789  0.56992941  0.99404587  1  0.056181  0  0.106535  0.113763  0  1.005022  0
H  H39  1  0.49970208  0.60317505  0.08077872  1  0.062654  0  0.104278  0.112885  0  1.030027  0
H  H40  1  0.51764809  0.49706514  0.16878454  1  0.093342  0  0.106172  0.113863  0  1.005114  0
H  H41  1  0.74648692  0.46422090  0.08219629  1  0.092348  0  0.104342  0.113672  0  1.032903  0
H  H42  1  0.42055000  0.03498934  0.67881909  1  0.082606  0  0.104296  0.105238  0  1.008081  0
H  H43  1  0.49915840  0.22736066  0.83098762  1  0.056462  0  0.102488  0.102751  0  0.998552  0
H  H44  1  0.39220023  0.19476852  0.91991193  1  0.088858  0  0.107981  0.112605  0  1.0074  0
H  H45  1  0.32028965  0.99887356  0.77245651  1  0.108307  0  0.112296  0.118991  0  0.985108  0
H  H46  1  0.45513310  0.03460645  0.48608443  1  0.081021  0  0.098341  0.099941  0  1.025295  0
H  H47  1  0.38314033  0.27096892  0.46077055  1  0.038444  0  0.097796  0.09433  0  1.024168  0
H  H48  1  0.27318803  0.22394248  0.37731441  1  0.101006  0  0.101282  0.104016  0  1.026898  0
H  H49  1  0.35056311  0.99015607  0.39312426  1  0.053193  0  0.106211  0.108226  0  1.000968  0
H  H50  1  0.88243267  0.06692233  0.79236052  1  0.07274  0  0.106329  0.110054  0  0.997628  0
H  H51  1  0.97840950  0.84021643  0.79624921  1  0.107139  0  0.103603  0.1084  0  1.025915  0
H  H52  1  0.87241486  0.78894219  0.70988713  1  0.058712  0  0.097572  0.094114  0  1.026602  0
H  H53  1  0.78120322  0.01939812  0.69723680  1  0.074322  0  0.097622  0.100497  0  1.031715  0
H  H54  1  0.82798139  0.02252365  0.50050223  1  0.046147  0  0.104748  0.106243  0  1.006674  0
H  H55  1  0.75796374  0.82977600  0.34511067  1  0.066805  0  0.102757  0.103149  0  0.996777  0
H  H56  1  0.86637242  0.86578106  0.25947580  1  0.116181  0  0.107922  0.113473  0  1.004204  0
H  H57  1  0.93006691  0.06204596  0.41008322  1  0.089897  0  0.112584  0.118997  0  0.981108  0
H  H58  1  0.69255226  0.02528999  0.46381950  1  0.102604  0  0.103747  0.112246  0  1.030295  0
H  H59  1  0.65945477  0.94044854  0.69335131  1  0.079046  0  0.105959  0.113144  0  1.006636  0
H  H60  1  0.55359214  0.02820324  0.71072213  1  0.075746  0  0.103825  0.112617  0  1.033436  0
H  H61  1  0.58619420  0.11281726  0.48098135  1  0.078253  0  0.105999  0.114162  0  1.004747  0
H  H62  1  0.08696600  0.72153847  0.29012371  1  0.106264  0  0.111767  0.118236  0  0.98398  0
H  H63  1  0.28676118  0.86740835  0.35323019  1  0.093771  0  0.107698  0.11203  0  1.009642  0
H  H64  1  0.32151210  0.77929611  0.46003411  1  0.070533  0  0.102399  0.102098  0  0.999031  0
H  H65  1  0.12457153  0.62883412  0.39065959  1  0.044837  0  0.103556  0.104422  0  1.01042  0
H  H66  1  0.36245524  0.40276546  0.34963217  1  0.078456  0  0.097486  0.093024  0  1.022639  0
H  H67  1  0.12532938  0.44145866  0.41142293  1  0.08144  0  0.098792  0.100295  0  1.02484  0
H  H68  1  0.08044832  0.34800823  0.30745181  1  0.056919  0  0.10586  0.107716  0  1.00105  0
H  H69  1  0.31578674  0.31965646  0.23932747  1  0.101371  0  0.100776  0.10343  0  1.032181  0
H  H70  1  0.92723570  0.74665762  0.93656707  1  0.121071  0  0.102339  0.105296  0  1.035439  0
H  H71  1  0.15972216  0.72802612  0.85733762  1  0.088711  0  0.105502  0.108282  0  0.999375  0
H  H72  1  0.11427397  0.63212031  0.75594763  1  0.074824  0  0.098301  0.100117  0  1.027952  0
H  H73  1  0.87882300  0.66082131  0.82894410  1  0.060776  0  0.097582  0.093463  0  1.024551  0
H  H74  1  0.92021364  0.28850636  0.72093892  1  0.045146  0  0.103063  0.104003  0  0.99718  0
H  H75  1  0.11631861  0.44184848  0.78592103  1  0.071659  0  0.104086  0.107141  0  1.008778  0
H  H76  1  0.15440528  0.35264808  0.88947399  1  0.105845  0  0.112427  0.118937  0  0.981875  0
H  H77  1  0.95512878  0.20419106  0.83058671  1  0.106663  0  0.107527  0.112472  0  1.007089  0
H  H78  1  0.10910732  0.40516955  0.64673682  1  0.098417  0  0.103908  0.113116  0  1.028739  0
H  H79  1  0.04180485  0.64327989  0.63181682  1  0.087314  0  0.105823  0.11372  0  1.008871  0
H  H80  1  0.13058870  0.66222205  0.52725520  1  0.094718  0  0.103654  0.112856  0  1.032144  0
H  H81  1  0.19754935  0.42395157  0.54151119  1  0.085394  0  0.105854  0.114239  0  1.007151  0
C  C82  1  0.97423083  0.43959700  0.71581307  1  0.250665  0  0.075743  0.078947  0  3.940382  0
C  C83  1  0.89708486  0.45404524  0.72984935  1  -0.037115  0  -0.100432  -0.173899  0  4.004115  0
C  C84  1  0.89064748  0.53487703  0.74254127  1  0.009572  0  -0.107516  -0.188165  0  4.017388  0
C  C85  1  0.96360651  0.57064376  0.73613285  1  0.281008  0  0.077155  0.082848  0  3.936508  0
C  C86  1  0.26658642  0.62830550  0.46025824  1  0.333088  0  0.077317  0.088197  0  3.937757  0
C  C87  1  0.34359850  0.61385670  0.44565442  1  0.006728  0  -0.102662  -0.178345  0  4.002552  0
C  C88  1  0.34959450  0.53321016  0.43138545  1  0.010793  0  -0.107689  -0.186606  0  4.016375  0
C  C89  1  0.27655714  0.49751690  0.43754264  1  0.196496  0  0.076815  0.086742  0  3.938413  0
C  C90  1  0.75410410  0.88223723  0.49621186  1  0.285266  0  0.076639  0.087059  0  3.943027  0
C  C91  1  0.76694220  0.80479956  0.51077572  1  0.005818  0  -0.101706  -0.176377  0  3.999957  0
C  C92  1  0.77772218  0.79790440  0.59170886  1  0.004437  0  -0.107154  -0.187149  0  4.01553  0
C  C93  1  0.77131951  0.87088558  0.62728554  1  0.241959  0  0.076217  0.084878  0  3.936088  0
C  C94  1  0.49680942  0.17371643  0.67978806  1  0.33975  0  0.077915  0.089827  0  3.944665  0
C  C95  1  0.48518461  0.25133990  0.66513628  1  -0.072056  0  -0.103207  -0.179544  0  4.002536  0
C  C96  1  0.47218876  0.25791147  0.58447009  1  0.05623  0  -0.106797  -0.185166  0  4.015633  0
C  C97  1  0.47614740  0.18459021  0.54902403  1  0.2647  0  0.075427  0.083651  0  3.942423  0
C  C98  1  0.53105342  0.66357702  0.93636305  1  0.321323  0  0.077049  0.087695  0  3.942341  0
C  C99  1  0.54579069  0.67628752  0.85899577  1  -0.017533  0  -0.101944  -0.177089  0  4.000643  0
C  C100  1  0.62670053  0.68783837  0.85228684  1  0.00545  0  -0.107143  -0.187291  0  4.014783  0
C  C101  1  0.66214283  0.68202958  0.92529665  1  0.253893  0  0.076267  0.085064  0  3.937759  0
C  C102  1  0.71623325  0.40758137  0.22871038  1  0.270545  0  0.077278  0.088642  0  3.942535  0
C  C103  1  0.70159558  0.39601722  0.30626697  1  0.015435  0  -0.103067  -0.17816  0  4.002179  0
C  C104  1  0.62086625  0.38285294  0.31290254  1  -0.033165  0  -0.107193  -0.186403  0  4.018232  0
C  C105  1  0.58540043  0.38654592  0.23969828  1  0.270341  0  0.075103  0.083122  0  3.940877  0
C  C106  1  0.06584523  0.23263386  0.94127690  1  1.548872  0  0.230272  0.634967  0  4.123205  0
C  C107  1  0.35981753  0.15135533  0.12850131  1  1.55155  0  0.227061  0.627422  0  4.127561  0
C  C108  1  0.16605744  0.27057630  0.20399677  1  1.530804  0  0.228641  0.631362  0  4.123333  0
C  C109  1  0.27614329  0.08795616  0.89369599  1  1.542794  0  0.23588  0.642684  0  4.10525  0
C  C110  1  0.17752655  0.84051114  0.24068721  1  1.555973  0  0.235323  0.642767  0  4.108124  0
C  C111  1  0.89094215  0.91080969  0.04257375  1  1.553922  0  0.230866  0.636417  0  4.11711  0
C  C112  1  0.24189400  0.07498448  0.32290706  1  1.539553  0  0.227954  0.629371  0  4.127388  0
C  C113  1  0.32157654  0.88739885  0.02843875  1  1.531209  0  0.229983  0.633805  0  4.126028  0
C  C114  1  0.99931740  0.98824612  0.85619184  1  1.554628  0  0.229455  0.632584  0  4.120085  0
C  C115  1  0.93034744  0.18725121  0.14272672  1  1.548863  0  0.235057  0.641132  0  4.105624  0
C  C116  1  0.97805259  0.97581068  0.28704454  1  1.535027  0  0.231257  0.636999  0  4.120924  0
C  C117  1  0.07669662  0.80074939  0.96525176  1  1.558996  0  0.231948  0.637797  0  4.114362  0
C  C118  1  0.85439473  0.37064848  0.23234082  1  -0.010095  0  -0.093962  -0.140485  0  3.99548  0
C  C119  1  0.78301475  0.37568243  0.19093053  1  -0.050936  0  -0.000735  0.062739  0  4.028146  0
C  C120  1  0.76994167  0.32843326  0.12296439  1  0.013568  0  -0.092216  -0.138595  0  3.976692  0
C  C121  1  0.82110961  0.27113201  0.10359317  1  -0.081347  0  -0.077511  -0.07583  0  3.976809  0
C  C122  1  0.88563232  0.25864215  0.15237409  1  -0.040248  0  -0.018086  -0.042621  0  3.969069  0
C  C123  1  0.90391281  0.31140482  0.21443932  1  0.007864  0  -0.078972  -0.080136  0  3.978671  0
C  C124  1  0.48636708  0.28353740  0.26313908  1  -0.067431  0  -0.092204  -0.126164  0  3.968407  0
C  C125  1  0.51845691  0.33778199  0.21186137  1  -0.018419  0  -0.005462  0.054207  0  4.022773  0
C  C126  1  0.49501996  0.32958158  0.13287778  1  -0.051817  0  -0.097857  -0.14057  0  3.987366  0
C  C127  1  0.44425894  0.26935015  0.10695031  1  0.037252  0  -0.080609  -0.076421  0  3.976631  0
C  C128  1  0.41768694  0.21266176  0.15749932  1  -0.04882  0  -0.020599  -0.045207  0  3.968644  0
C  C129  1  0.43928095  0.22081053  0.23634623  1  -0.007793  0  -0.086733  -0.097187  0  3.998029  0
C  C130  1  0.80734829  0.79146393  0.06035226  1  0.021074  0  -0.081467  -0.079359  0  3.979445  0
C  C131  1  0.83354465  0.85008923  0.01180671  1  -0.008941  0  -0.018594  -0.04381  0  3.965795  0
C  C132  1  0.80996902  0.84601815  0.93336404  1  -0.050479  0  -0.082571  -0.087695  0  3.986878  0
C  C133  1  0.76158227  0.78512262  0.90482188  1  -0.047281  0  -0.09176  -0.1258  0  3.968897  0
C  C134  1  0.73011311  0.72871293  0.95421960  1  -0.096573  0  -0.004857  0.054052  0  4.023295  0
C  C135  1  0.75529756  0.73298833  0.03288067  1  -0.026753  0  -0.099272  -0.143414  0  3.993916  0
C  C136  1  0.39429846  0.70495893  0.93396632  1  -0.10146  0  -0.093658  -0.136995  0  3.99692  0
C  C137  1  0.46554411  0.69713885  0.97495911  1  -0.005867  0  -0.00094  0.061703  0  4.028174  0
C  C138  1  0.48020965  0.74296829  0.04363511  1  0.002037  0  -0.091304  -0.136239  0  3.97432  0
C  C139  1  0.43080363  0.80143584  0.06436124  1  -0.054824  0  -0.07874  -0.077112  0  3.977558  0
C  C140  1  0.36648147  0.81646923  0.01627029  1  -0.007425  0  -0.02251  -0.052711  0  3.982214  0
C  C141  1  0.34664173  0.76528437  0.95321294  1  -0.01488  0  -0.081704  -0.083821  0  3.986846  0
C  C142  1  0.68202571  0.55509183  0.03306207  1  0.007018  0  -0.095336  -0.157646  0  4.000222  0
C  C143  1  0.61366331  0.59704369  0.03116372  1  0.297631  0  0.088113  0.163042  0  4.007875  0
C  C144  1  0.55442910  0.57367619  0.08036369  1  -0.025051  0  -0.097567  -0.16082  0  3.994022  0
C  C145  1  0.56409283  0.51212286  0.12997497  1  0.022025  0  -0.096064  -0.159264  0  4.002291  0
C  C146  1  0.63273947  0.47062806  0.13237407  1  0.270966  0  0.088983  0.165315  0  4.002015  0
C  C147  1  0.69177840  0.49368043  0.08275131  1  -0.041113  0  -0.09915  -0.16417  0  3.99153  0
C  C148  1  0.41741945  0.06786432  0.73352056  1  -0.074421  0  -0.092304  -0.136868  0  3.979444  0
C  C149  1  0.46484745  0.13587158  0.74661803  1  -0.034961  0  -0.000801  0.061393  0  4.031627  0
C  C150  1  0.46001369  0.17729125  0.81806482  1  -0.023486  0  -0.093884  -0.140536  0  3.995703  0
C  C151  1  0.40070718  0.15942604  0.86762995  1  -0.061437  0  -0.078426  -0.07721  0  3.975965  0
C  C152  1  0.34769747  0.09741957  0.84920592  1  0.024685  0  -0.01785  -0.0434  0  3.969152  0
C  C153  1  0.35999727  0.04855881  0.78468821  1  -0.013783  0  -0.078478  -0.078386  0  3.979406  0
C  C154  1  0.41729681  0.07710352  0.46083838  1  -0.04252  0  -0.097563  -0.139321  0  3.987167  0
C  C155  1  0.42808995  0.15668580  0.48181138  1  -0.046281  0  -0.005599  0.053357  0  4.025827  0
C  C156  1  0.37676344  0.20889371  0.44705706  1  0.013075  0  -0.092494  -0.127251  0  3.974025  0
C  C157  1  0.31385806  0.18264775  0.40017002  1  -0.075839  0  -0.086138  -0.094815  0  3.996137  0
C  C158  1  0.30302581  0.10330031  0.38108233  1  -0.02315  0  -0.019681  -0.04199  0  3.967601  0
C  C159  1  0.35715013  0.05154681  0.40999669  1  0.016901  0  -0.081752  -0.079146  0  3.978477  0
C  C160  1  0.88050156  0.00623811  0.77247979  1  0.010725  0  -0.08216  -0.081568  0  3.982266  0
C  C161  1  0.93860723  0.95751985  0.79898493  1  -0.046069  0  -0.018615  -0.041535  0  3.966518  0
C  C162  1  0.93418406  0.87888461  0.77560748  1  -0.005441  0  -0.082641  -0.08774  0  3.983334  0
C  C163  1  0.87343316  0.85027548  0.72725532  1  -0.028041  0  -0.091446  -0.126522  0  3.968894  0
C  C164  1  0.81763481  0.89982503  0.69541085  1  -0.089289  0  -0.005913  0.053185  0  4.022569  0
C  C165  1  0.82226939  0.97870118  0.72029873  1  -0.035311  0  -0.099124  -0.143802  0  3.993434  0
C  C166  1  0.83345248  0.99022436  0.44577756  1  -0.052228  0  -0.091555  -0.1366  0  3.97267  0
C  C167  1  0.78773830  0.92132384  0.43086126  1  0.020225  0  9.5e-05  0.063757  0  4.026628  0
C  C168  1  0.79561252  0.88063147  0.35948893  1  -0.057449  0  -0.093422  -0.138318  0  3.997338  0
C  C169  1  0.85585963  0.90039959  0.31178402  1  -0.060257  0  -0.081418  -0.082247  0  3.985037  0
C  C170  1  0.90701699  0.96360287  0.33185397  1  0.033551  0  -0.022722  -0.053557  0  3.981116  0
C  C171  1  0.89190831  0.01142662  0.39640714  1  -0.027529  0  -0.078023  -0.076207  0  3.974624  0
C  C172  1  0.66302574  0.02515633  0.51856384  1  0.001197  0  -0.097842  -0.160659  0  3.991724  0
C  C173  1  0.68655621  0.97663181  0.57827812  1  0.309923  0  0.087887  0.162928  0  4.00603  0
C  C174  1  0.64454422  0.97892061  0.64662818  1  -0.027032  0  -0.09513  -0.156498  0  4.004995  0
C  C175  1  0.58300717  0.02835009  0.65593330  1  -0.042386  0  -0.098898  -0.164087  0  3.997604  0
C  C176  1  0.55988310  0.07732578  0.59648795  1  0.281346  0  0.08826  0.164216  0  4.005993  0
C  C177  1  0.60130284  0.07450599  0.52778739  1  -0.032581  0  -0.095799  -0.159658  0  4.00277  0
C  C178  1  0.13797596  0.73365732  0.32792055  1  -0.010941  0  -0.077855  -0.077533  0  3.975173  0
C  C179  1  0.18739532  0.79729521  0.31291351  1  -0.016128  0  -0.019901  -0.04604  0  3.969778  0
C  C180  1  0.25097323  0.81571722  0.36376536  1  -0.00811  0  -0.078691  -0.077586  0  3.976188  0
C  C181  1  0.27003912  0.76658802  0.42297473  1  -0.058279  0  -0.094458  -0.139815  0  3.995835  0
C  C182  1  0.22810621  0.69546098  0.42983674  1  -0.048266  0  -0.001127  0.060829  0  4.027578  0
C  C183  1  0.15830498  0.68291599  0.38535641  1  -0.05193  0  -0.091987  -0.135997  0  3.975549  0
C  C184  1  0.30011829  0.39231939  0.34082626  1  -0.063253  0  -0.091616  -0.124041  0  3.971985  0
C  C185  1  0.24782092  0.43054626  0.38943842  1  -0.003801  0  -0.006593  0.049809  0  4.028061  0
C  C186  1  0.16788165  0.41315594  0.37590589  1  -0.03453  0  -0.096774  -0.137428  0  3.987609  0
C  C187  1  0.14222337  0.36211523  0.31592589  1  0.013893  0  -0.081967  -0.080928  0  3.982505  0
C  C188  1  0.19449339  0.32963112  0.26439899  1  -0.05375  0  -0.018053  -0.038682  0  3.964125  0
C  C189  1  0.27408783  0.34542468  0.27779891  1  -0.030015  0  -0.086879  -0.098061  0  3.995512  0
C  C190  1  0.96784091  0.72256705  0.89600193  1  -0.074117  0  -0.082271  -0.08714  0  3.981941  0
C  C191  1  0.04712379  0.74207670  0.90524127  1  0.035617  0  -0.01714  -0.038598  0  3.961009  0
C  C192  1  0.09830275  0.71132665  0.85159539  1  -0.082054  0  -0.082883  -0.082504  0  3.982944  0
C  C193  1  0.07210124  0.65886590  0.79307772  1  -0.032418  0  -0.098207  -0.141305  0  3.991785  0
C  C194  1  0.99241801  0.63833159  0.78317578  1  0.018741  0  -0.005996  0.051062  0  4.025594  0
C  C195  1  0.94091748  0.67426368  0.83444050  1  -0.096076  0  -0.092635  -0.128093  0  3.967058  0
C  C196  1  0.97138132  0.30283087  0.75793665  1  -0.017097  0  -0.094092  -0.140042  0  3.99622  0
C  C197  1  0.01300460  0.37376861  0.74871728  1  -0.009959  0  -0.000259  0.063976  0  4.026272  0
C  C198  1  0.08272496  0.38799943  0.79302659  1  0.008477  0  -0.091881  -0.139198  0  3.975234  0
C  C199  1  0.10321310  0.33930510  0.85224462  1  -0.131962  0  -0.078022  -0.074746  0  3.97801  0
C  C200  1  0.05412778  0.27604303  0.86929207  1  0.046913  0  -0.023415  -0.055901  0  3.984054  0
C  C201  1  0.99053226  0.25586104  0.81892284  1  -0.084694  0  -0.082015  -0.081713  0  3.984622  0
C  C202  1  0.11319346  0.46218445  0.62155166  1  0.004101  0  -0.098923  -0.164658  0  3.999666  0
C  C203  1  0.06906020  0.52340530  0.64987243  1  0.282662  0  0.088484  0.158664  0  4.009549  0
C  C204  1  0.07644434  0.59479050  0.61326011  1  -0.0095  0  -0.09688  -0.159309  0  4.010731  0
C  C205  1  0.12651674  0.60517370  0.55232553  1  -0.056798  0  -0.099831  -0.166062  0  3.997026  0
C  C206  1  0.17084258  0.54404210  0.52412163  1  0.225056  0  0.088667  0.164278  0  4.00654  0
C  C207  1  0.16310164  0.47248264  0.56039169  1  0.017186  0  -0.096278  -0.159042  0  4.005343  0
N  N208  1  0.01358263  0.51243629  0.70897679  1  -1.141147  0  -0.229332  -0.068849  0  3.577612  0
N  N209  1  0.22682239  0.55549771  0.46555601  1  -1.149557  0  -0.230263  -0.087788  0  3.600831  0
N  N210  1  0.74612942  0.92146464  0.56863148  1  -1.156376  0  -0.229685  -0.088895  0  3.597204  0
N  N211  1  0.50156931  0.13370651  0.60725120  1  -1.138801  0  -0.230563  -0.08922  0  3.591463  0
N  N212  1  0.60352492  0.65641772  0.97576519  1  -1.154879  0  -0.229558  -0.087838  0  3.5975  0
N  N213  1  0.64364903  0.41227317  0.18879422  1  -1.1332  0  -0.229295  -0.089296  0  3.590503  0
O  O214  1  0.00928258  0.18937757  0.96163941  1  -1.17864  0  -0.351904  -0.610444  0  2.303549  0
O  O215  1  0.35499099  0.08488149  0.15816372  1  -1.177077  0  -0.33043  -0.599193  0  2.174451  0
O  O216  1  0.19584835  0.26520215  0.13778883  1  -1.170933  0  -0.330354  -0.599997  0  2.175412  0
O  O217  1  0.25842845  0.14511392  0.93737620  1  -1.177985  0  -0.35321  -0.613055  0  2.306649  0
O  O218  1  0.23565742  0.02411706  0.88338772  1  -1.19427  0  -0.373797  -0.638324  0  2.253113  0
O  O219  1  0.11277770  0.22444488  0.22869222  1  -1.167727  0  -0.377307  -0.637104  0  2.33695  0
O  O220  1  0.31393429  0.17512543  0.07472814  1  -1.179082  0  -0.379102  -0.638915  0  2.345651  0
O  O221  1  0.13190976  0.24055467  0.97802427  1  -1.186074  0  -0.37214  -0.635622  0  2.23657  0
O  O222  1  0.21804135  0.03831391  0.04884397  1  -1.196014  0  -0.789762  -1.145484  0  2.128557  0
O  O223  1  0.08558914  0.12890084  0.09237813  1  -1.197876  0  -0.789806  -1.14569  0  2.128587  0
O  O224  1  0.20803028  0.11787639  0.17105674  1  -1.219105  0  -0.695791  -1.063372  0  2.392078  0
O  O225  1  0.11640565  0.08466120  0.95753248  1  -1.23092  0  -0.694897  -1.071178  0  2.367691  0
O  O226  1  0.23475005  0.88365448  0.22157046  1  -1.175877  0  -0.353081  -0.613586  0  2.309285  0
O  O227  1  0.89680906  0.97696469  0.01264754  1  -1.179731  0  -0.330246  -0.602863  0  2.185837  0
O  O228  1  0.17586237  0.10519455  0.31805612  1  -1.173976  0  -0.330695  -0.600782  0  2.175569  0
O  O229  1  0.27725460  0.90651258  0.97245449  1  -1.176728  0  -0.350311  -0.608126  0  2.307924  0
O  O230  1  0.06519755  0.95804876  0.86187527  1  -1.180976  0  -0.329991  -0.601952  0  2.188644  0
O  O231  1  0.97444741  0.16949345  0.19948686  1  -1.175879  0  -0.351632  -0.612085  0  2.300244  0
O  O232  1  0.99722661  0.91945089  0.24313474  1  -1.179499  0  -0.351629  -0.610433  0  2.306924  0
O  O233  1  0.04652121  0.80703337  0.03106781  1  -1.181703  0  -0.329945  -0.602539  0  2.184078  0
O  O234  1  0.01513790  0.04190213  0.29455165  1  -1.179926  0  -0.371306  -0.636325  0  2.238353  0
O  O235  1  0.13348116  0.84379016  0.94181653  1  -1.177713  0  -0.386156  -0.649416  0  2.327887  0
O  O236  1  0.26555688  0.02131199  0.27681703  1  -1.177921  0  -0.378458  -0.637844  0  2.344261  0
O  O237  1  0.91980565  0.14695507  0.07896600  1  -1.188444  0  -0.373285  -0.637303  0  2.254295  0
O  O238  1  0.97697265  0.04576020  0.89866847  1  -1.190299  0  -0.385876  -0.64811  0  2.331588  0
O  O239  1  0.32951956  0.92442454  0.09432922  1  -1.180883  0  -0.371287  -0.635228  0  2.241485  0
O  O240  1  0.11350169  0.82975258  0.20088921  1  -1.196351  0  -0.373648  -0.637449  0  2.251819  0
O  O241  1  0.93342288  0.88810913  0.09991048  1  -1.186195  0  -0.387082  -0.650342  0  2.331573  0
O  O242  1  0.05894241  0.96986755  0.02398063  1  -1.196222  0  -0.788939  -1.147748  0  2.117252  0
O  O243  1  0.12831749  0.99558165  0.18234746  1  -1.198703  0  -0.789752  -1.147064  0  2.130005  0
O  O244  1  0.99354425  0.02730259  0.13898696  1  -1.242902  0  -0.694771  -1.07149  0  2.364944  0
O  O245  1  0.17359399  0.90341987  0.08058688  1  -1.241105  0  -0.69558  -1.072987  0  2.365929  0
