# generated using pymatgen
data_AlH14C20N2O5
_symmetry_space_group_name_H-M   'P 1'
_cell_length_a   6.62916421
_cell_length_b   22.04674444
_cell_length_c   27.40544172
_cell_angle_alpha   78.57970565
_cell_angle_beta   91.29572151
_cell_angle_gamma   90.05172717
_symmetry_Int_Tables_number   1
_chemical_formula_structural   AlH14C20N2O5
_chemical_formula_sum   'Al4 H56 C80 N8 O20'
_cell_volume   3925.01468201
_cell_formula_units_Z   4
loop_
 _symmetry_equiv_pos_site_id
 _symmetry_equiv_pos_as_xyz
  1  'x, y, z'
loop_
 _atom_site_type_symbol
 _atom_site_label
 _atom_site_symmetry_multiplicity
 _atom_site_fract_x
 _atom_site_fract_y
 _atom_site_fract_z
 _atom_site_occupancy
 _atom_site_pbe_bader_charge
 _atom_site_pbe_bader_spin_density
 _atom_site_pbe_cm5_charge
 _atom_site_pbe_ddec_charge
 _atom_site_pbe_ddec_spin_density
 _atom_site_pbe_ddec_sum_bond_order
 _atom_site_pbe_magmom
Al  Al0  1  0.80263637  0.25316082  0.24863549  1  2.499508  0  0.394786  1.633473  0  2.581017  0
Al  Al1  1  0.19543854  0.74644118  0.75157427  1  2.500615  0  0.394522  1.634168  0  2.58334  0
Al  Al2  1  0.30225804  0.24774052  0.25279551  1  2.501894  0  0.394467  1.636838  0  2.580726  0
Al  Al3  1  0.69568947  0.75178601  0.74746818  1  2.501121  0  0.394876  1.637244  0  2.577953  0
H  H4  1  0.53124286  0.44287555  0.95705831  1  0.057766  0  0.103405  0.106323  0  0.990225  0
H  H5  1  0.46789986  0.55647956  0.04272622  1  0.061743  0  0.103618  0.106751  0  0.989118  0
H  H6  1  0.04574310  0.06275587  0.54157954  1  0.05843  0  0.102018  0.104841  0  0.991403  0
H  H7  1  0.95343332  0.93758010  0.45943927  1  0.072335  0  0.101988  0.104561  0  0.991066  0
H  H8  1  0.33315534  0.43568053  0.19963247  1  0.086403  0  0.109393  0.115755  0  0.987496  0
H  H9  1  0.66541837  0.56367645  0.80025036  1  0.093058  0  0.109196  0.115868  0  0.987714  0
H  H10  1  0.81511000  0.06183075  0.30252570  1  0.070284  0  0.107735  0.111557  0  0.985267  0
H  H11  1  0.18215831  0.93784246  0.69835790  1  0.100365  0  0.107119  0.111831  0  0.984319  0
H  H12  1  0.54335807  0.48176169  0.86947863  1  0.042635  0  0.101449  0.107664  0  0.998648  0
H  H13  1  0.45504528  0.51755129  0.13037158  1  0.056776  0  0.101186  0.107592  0  0.999207  0
H  H14  1  0.06167576  0.02200462  0.62887496  1  0.066422  0  0.0999  0.105154  0  1.001731  0
H  H15  1  0.93631286  0.97789539  0.37206087  1  0.029979  0  0.099934  0.104685  0  1.001766  0
H  H16  1  0.67173687  0.43020149  0.04119944  1  0.081405  0  0.105578  0.108413  0  1.038952  0
H  H17  1  0.32737415  0.56899284  0.95858402  1  0.075619  0  0.104978  0.107245  0  1.038493  0
H  H18  1  0.17621549  0.07442714  0.45792987  1  0.100795  0  0.104586  0.10915  0  1.03556  0
H  H19  1  0.82337865  0.92616172  0.54312079  1  0.088311  0  0.104342  0.108599  0  1.036303  0
H  H20  1  0.31961715  0.10259053  0.06071757  1  0.075089  0  0.093873  0.093753  0  1.038679  0
H  H21  1  0.68031626  0.89713531  0.93973430  1  0.072575  0  0.09388  0.093626  0  1.038723  0
H  H22  1  0.82376315  0.45232881  0.40602092  1  0.057358  0  0.094453  0.094358  0  1.032818  0
H  H23  1  0.17322940  0.54681224  0.59486848  1  0.085077  0  0.094261  0.093837  0  1.033885  0
H  H24  1  0.34419546  0.16740475  0.12590935  1  0.088854  0  0.10391  0.115284  0  1.005468  0
H  H25  1  0.65436107  0.83226800  0.87462306  1  0.088612  0  0.103772  0.115166  0  1.004902  0
H  H26  1  0.85830601  0.38585212  0.34265271  1  0.111192  0  0.104858  0.11624  0  1.003827  0
H  H27  1  0.13931193  0.61392081  0.65780458  1  0.098018  0  0.104924  0.116338  0  1.00396  0
H  H28  1  0.27247279  0.98578922  0.06499259  1  0.025019  0  0.098984  0.101058  0  1.005382  0
H  H29  1  0.72795880  0.01393917  0.93515366  1  0.032024  0  0.098852  0.100907  0  1.004692  0
H  H30  1  0.77072746  0.42207942  0.50150807  1  0.032263  0  0.098605  0.100844  0  1.003357  0
H  H31  1  0.22570253  0.57660463  0.49927878  1  0.043015  0  0.098553  0.100814  0  1.003395  0
H  H32  1  0.26733934  0.92071032  0.00110179  1  0.075897  0  0.104475  0.109194  0  0.995635  0
H  H33  1  0.73324589  0.07896252  0.99910844  1  0.061822  0  0.103943  0.109073  0  0.995436  0
H  H34  1  0.75971096  0.48300138  0.56813062  1  0.039187  0  0.105391  0.110603  0  0.993105  0
H  H35  1  0.23685253  0.51567136  0.43267343  1  0.083303  0  0.105239  0.110981  0  0.993125  0
H  H36  1  0.83301044  0.33397855  0.12947085  1  0.47911  0  0.304527  0.306357  0  0.979468  0
H  H37  1  0.83540180  0.36111575  0.06595239  1  0.437641  0  0.307051  0.298879  0  0.954314  0
H  H38  1  0.16399315  0.63810215  0.93376860  1  0.44285  0  0.306663  0.298456  0  0.956777  0
H  H39  1  0.16621418  0.66527160  0.87025353  1  0.48097  0  0.304676  0.305977  0  0.979416  0
H  H40  1  0.34807081  0.17118552  0.37185852  1  0.456569  0  0.304408  0.301114  0  0.9671  0
H  H41  1  0.34918972  0.14142717  0.43396977  1  0.43533  0  0.302621  0.292317  0  0.961581  0
H  H42  1  0.65000843  0.85895164  0.56681948  1  0.442686  0  0.303011  0.293832  0  0.960879  0
H  H43  1  0.65056352  0.82897425  0.62883468  1  0.453717  0  0.304443  0.301547  0  0.967172  0
H  H44  1  0.72450621  0.12715785  0.16142228  1  0.095947  0  0.109521  0.127819  0  1.000355  0
H  H45  1  0.27416962  0.87199826  0.83879767  1  0.100543  0  0.109985  0.12789  0  0.999659  0
H  H46  1  0.24279093  0.32820641  0.36543332  1  0.101191  0  0.109627  0.128789  0  0.999272  0
H  H47  1  0.75522533  0.67107459  0.63464046  1  0.102111  0  0.109977  0.129079  0  0.998441  0
H  H48  1  0.66739880  0.01525480  0.08171825  1  0.425361  0  0.296569  0.283429  0  0.977519  0
H  H49  1  0.56099333  0.04936455  0.12556803  1  0.445878  0  0.306411  0.299795  0  0.945597  0
H  H50  1  0.43906249  0.94964600  0.87457322  1  0.444786  0  0.306516  0.300283  0  0.944925  0
H  H51  1  0.33315383  0.98396321  0.91839994  1  0.436756  0  0.297156  0.284265  0  0.979137  0
H  H52  1  0.06362081  0.36084150  0.43059813  1  0.462371  0  0.305559  0.299337  0  0.952205  0
H  H53  1  0.16647222  0.40767618  0.46728639  1  0.430136  0  0.297624  0.286553  0  0.980027  0
H  H54  1  0.83040756  0.59072146  0.53329593  1  0.438717  0  0.296985  0.284405  0  0.982457  0
H  H55  1  0.93376879  0.63792070  0.56963461  1  0.439528  0  0.305273  0.298887  0  0.951603  0
H  H56  1  0.53183471  0.30001320  0.19310050  1  0.617128  0  0.349503  0.422773  0  0.866396  0
H  H57  1  0.46640084  0.69901869  0.80688049  1  0.61295  0  0.349269  0.422282  0  0.867646  0
H  H58  1  0.03924769  0.19886403  0.30674730  1  0.615941  0  0.346413  0.420993  0  0.872737  0
H  H59  1  0.95879565  0.80103516  0.69370984  1  0.620655  0  0.346385  0.420788  0  0.873332  0
C  C60  1  0.56685898  0.31087525  0.31474224  1  1.574271  0  0.262572  0.632292  0  4.103727  0
C  C61  1  0.43118188  0.68890649  0.68530879  1  1.578248  0  0.262585  0.631886  0  4.102296  0
C  C62  1  0.03948154  0.19037156  0.18554589  1  1.553371  0  0.260176  0.629702  0  4.113197  0
C  C63  1  0.95849460  0.80893410  0.81492544  1  1.55315  0  0.260754  0.629379  0  4.115642  0
C  C64  1  0.55693349  0.15060913  0.30694527  1  1.533145  0  0.26729  0.662105  0  4.081988  0
C  C65  1  0.44096649  0.84921561  0.69371967  1  1.554041  0  0.267668  0.663058  0  4.083022  0
C  C66  1  0.06866097  0.34945111  0.19472639  1  1.51015  0  0.264881  0.65079  0  4.080615  0
C  C67  1  0.92973811  0.64989564  0.80516488  1  1.520311  0  0.264484  0.651772  0  4.080576  0
C  C68  1  0.90005677  0.59494847  0.84481183  1  0.011496  0  -0.039946  -0.193871  0  3.976535  0
C  C69  1  0.09852505  0.40435584  0.15501405  1  0.00045  0  -0.039542  -0.192959  0  3.974493  0
C  C70  1  0.41010157  0.90574342  0.65459651  1  0.014419  0  -0.037963  -0.182018  0  3.984839  0
C  C71  1  0.58805569  0.09421763  0.34626216  1  -0.010797  0  -0.036921  -0.180219  0  3.982042  0
C  C72  1  0.67301371  0.51043429  0.87480477  1  0.039055  0  -0.112122  -0.179738  0  4.065009  0
C  C73  1  0.32552591  0.48886417  0.12505708  1  0.001708  0  -0.112132  -0.179584  0  4.066366  0
C  C74  1  0.18858249  0.99242169  0.62415845  1  -0.108748  0  -0.111339  -0.174618  0  4.058198  0
C  C75  1  0.80962138  0.00754394  0.37680109  1  -0.00563  0  -0.111275  -0.174878  0  4.060539  0
C  C76  1  0.73957281  0.55543170  0.83683792  1  -0.091824  0  -0.090995  -0.077493  0  4.072809  0
C  C77  1  0.25904106  0.44386404  0.16303160  1  -0.033708  0  -0.09036  -0.076292  0  4.07091  0
C  C78  1  0.25445584  0.94611366  0.66229849  1  -0.012402  0  -0.091785  -0.083628  0  4.077169  0
C  C79  1  0.74335230  0.05371181  0.33861490  1  0.012536  0  -0.092069  -0.082039  0  4.07766  0
C  C80  1  0.00286302  0.58693815  0.89163000  1  0.465067  0  0.116515  0.26736  0  3.997973  0
C  C81  1  0.99613878  0.41233564  0.10813969  1  0.452913  0  0.116989  0.267755  0  3.997566  0
C  C82  1  0.50652398  0.91248908  0.60851578  1  0.402693  0  0.108676  0.252934  0  4.007398  0
C  C83  1  0.49219092  0.08770567  0.39236597  1  0.412992  0  0.108453  0.252299  0  4.007  0
C  C84  1  0.94396396  0.53665370  0.93130261  1  -0.005729  0  -0.012616  -0.08495  0  3.871355  0
C  C85  1  0.05511403  0.46261907  0.06848478  1  -0.004827  0  -0.011946  -0.082982  0  3.872799  0
C  C86  1  0.44961140  0.96371489  0.56884957  1  0.060766  0  -0.011154  -0.077774  0  3.875484  0
C  C87  1  0.54945665  0.03663341  0.43214022  1  0.01009  0  -0.011375  -0.078156  0  3.871827  0
C  C88  1  0.76791060  0.50246479  0.92249238  1  -0.027201  0  -0.009463  0.095307  0  4.061407  0
C  C89  1  0.23102087  0.49684330  0.07732561  1  -0.051183  0  -0.010849  0.093273  0  4.065877  0
C  C90  1  0.27906603  0.99999151  0.57704593  1  -0.033632  0  -0.01236  0.088809  0  4.059371  0
C  C91  1  0.71977772  0.00023123  0.42395465  1  -0.019979  0  -0.012359  0.088989  0  4.061549  0
C  C92  1  0.04532202  0.52076380  0.97980698  1  -0.03735  0  -0.007484  0.0419  0  3.935186  0
C  C93  1  0.95380315  0.47849947  0.01998991  1  -0.003174  0  -0.007721  0.041037  0  3.935657  0
C  C94  1  0.54548743  0.97848885  0.52073006  1  9.6e-05  0  -0.009881  0.037451  0  3.940847  0
C  C95  1  0.45383563  0.02200861  0.48029648  1  -0.051116  0  -0.00905  0.040374  0  3.937878  0
C  C96  1  0.75956802  0.45451847  0.01047458  1  -0.145752  0  -0.103061  -0.15396  0  4.048126  0
C  C97  1  0.23938379  0.54482596  0.98936037  1  -0.057835  0  -0.102625  -0.152235  0  4.047076  0
C  C98  1  0.26481519  0.04871428  0.48903956  1  -0.095565  0  -0.105262  -0.156481  0  4.049189  0
C  C99  1  0.73456902  0.95179144  0.51200571  1  -0.156074  0  -0.103599  -0.153047  0  4.050183  0
C  C100  1  0.67692207  0.46339657  0.96345808  1  -0.000497  0  -0.093248  -0.130226  0  4.035945  0
C  C101  1  0.32207995  0.53596497  0.03638697  1  -0.046022  0  -0.093055  -0.131281  0  4.034611  0
C  C102  1  0.18779953  0.04053067  0.53571152  1  -0.036859  0  -0.09427  -0.131196  0  4.039413  0
C  C103  1  0.81144526  0.95986156  0.46531872  1  -0.024629  0  -0.095215  -0.132873  0  4.041223  0
C  C104  1  0.85452395  0.12086634  0.13921928  1  -0.0439  0  -0.099405  -0.215695  0  3.943941  0
C  C105  1  0.14435433  0.87849802  0.86100832  1  0.005136  0  -0.099958  -0.215238  0  3.942328  0
C  C106  1  0.36940547  0.35559379  0.37501285  1  -0.05173  0  -0.098872  -0.213793  0  3.936691  0
C  C107  1  0.62830653  0.64369943  0.62521126  1  -0.010589  0  -0.099138  -0.21542  0  3.935831  0
C  C108  1  0.84004715  0.08282038  0.10393661  1  0.418747  0  0.092453  0.255112  0  4.087555  0
C  C109  1  0.15952017  0.91658862  0.89624709  1  0.377167  0  0.092948  0.255966  0  4.088397  0
C  C110  1  0.34807865  0.39225249  0.41098733  1  0.409187  0  0.094171  0.259173  0  4.090425  0
C  C111  1  0.64928873  0.60675155  0.58942992  1  0.379044  0  0.09404  0.258281  0  4.088203  0
C  C112  1  0.01059860  0.07652482  0.07485584  1  -0.035622  0  -0.019826  -0.042615  0  3.969138  0
C  C113  1  0.98925238  0.92308966  0.92536440  1  -0.0437  0  -0.020538  -0.044631  0  3.969656  0
C  C114  1  0.51589581  0.42731482  0.42267502  1  0.008392  0  -0.020012  -0.043081  0  3.969754  0
C  C115  1  0.48116023  0.57164153  0.57797280  1  -0.022516  0  -0.01985  -0.042557  0  3.965412  0
C  C116  1  0.18964183  0.10728039  0.08344291  1  -0.017328  0  -0.100535  -0.129621  0  4.050385  0
C  C117  1  0.80990923  0.89238534  0.91692374  1  -0.024403  0  -0.10035  -0.128266  0  4.048804  0
C  C118  1  0.69657259  0.42450134  0.39745706  1  -0.071138  0  -0.100793  -0.130051  0  4.050523  0
C  C119  1  0.30061885  0.57468175  0.60321782  1  -0.067057  0  -0.100105  -0.129036  0  4.048378  0
C  C120  1  0.20474099  0.14370024  0.11947139  1  -0.061707  0  -0.107607  -0.138725  0  4.029606  0
C  C121  1  0.79408842  0.85591186  0.88095213  1  -0.056701  0  -0.107033  -0.138298  0  4.03044  0
C  C122  1  0.71747241  0.38771438  0.36203819  1  -0.046317  0  -0.10565  -0.137494  0  4.028165  0
C  C123  1  0.27999457  0.61182940  0.63838123  1  -0.04526  0  -0.105625  -0.137808  0  4.027146  0
C  C124  1  0.03442060  0.15077695  0.14727775  1  -0.033808  0  -0.023601  -0.030775  0  4.034393  0
C  C125  1  0.96410971  0.84865198  0.85310126  1  -0.037852  0  -0.023509  -0.031822  0  4.036531  0
C  C126  1  0.55203670  0.35263004  0.35113743  1  -0.028433  0  -0.021551  -0.030504  0  4.034225  0
C  C127  1  0.44580147  0.64692594  0.64907485  1  -0.03741  0  -0.022223  -0.029775  0  4.032813  0
C  C128  1  0.15389781  0.99249575  0.03614094  1  -0.02999  0  -0.095708  -0.134583  0  4.002671  0
C  C129  1  0.84668555  0.00720832  0.96399141  1  -0.037849  0  -0.09539  -0.134359  0  4.002168  0
C  C130  1  0.65223566  0.45663655  0.50062367  1  -0.023828  0  -0.095676  -0.135267  0  4.007899  0
C  C131  1  0.34419161  0.54204491  0.50017026  1  -0.092769  0  -0.094885  -0.133915  0  4.00669  0
C  C132  1  0.15101864  0.95589665  0.00015466  1  -0.097517  0  -0.094844  -0.13669  0  3.998577  0
C  C133  1  0.84953329  0.04377543  0.00000292  1  -0.071144  0  -0.095098  -0.137617  0  3.999061  0
C  C134  1  0.64604410  0.49094242  0.53811286  1  -0.025754  0  -0.094556  -0.137275  0  4.0047  0
C  C135  1  0.35046894  0.50775659  0.46267602  1  -0.07644  0  -0.094642  -0.13813  0  4.005315  0
C  C136  1  0.99687969  0.96242063  0.96328888  1  0.01383  0  -0.011186  0.077314  0  4.014106  0
C  C137  1  0.00361754  0.03725142  0.03687499  1  0.013445  0  -0.010936  0.076933  0  4.013973  0
C  C138  1  0.49141660  0.53447248  0.53867786  1  0.033752  0  -0.012387  0.074711  0  4.014156  0
C  C139  1  0.50513160  0.46427315  0.46208671  1  -0.050231  0  -0.011678  0.07584  0  4.016685  0
N  N140  1  0.85123035  0.37027433  0.10059390  1  -1.236638  0  -0.592649  -0.60377  0  3.354327  0
N  N141  1  0.14792315  0.62897292  0.89912545  1  -1.254539  0  -0.590923  -0.600987  0  3.356235  0
N  N142  1  0.35474571  0.13253605  0.39912343  1  -1.234053  0  -0.594486  -0.606304  0  3.334991  0
N  N143  1  0.64412145  0.86773259  0.60168624  1  -1.231104  0  -0.594168  -0.607447  0  3.334634  0
N  N144  1  0.65955546  0.05318627  0.09736938  1  -1.23434  0  -0.595667  -0.621914  0  3.372921  0
N  N145  1  0.34042817  0.94603398  0.90274262  1  -1.239203  0  -0.596854  -0.623758  0  3.374663  0
N  N146  1  0.16499826  0.39427676  0.43396310  1  -1.26069  0  -0.59809  -0.627457  0  3.386659  0
N  N147  1  0.83225420  0.60445208  0.56648208  1  -1.242382  0  -0.597012  -0.623424  0  3.385816  0
O  O148  1  0.37961867  0.16711954  0.29019175  1  -1.258464  0  -0.239457  -0.592971  0  2.296809  0
O  O149  1  0.61820846  0.83251790  0.71039295  1  -1.264913  0  -0.23961  -0.594026  0  2.297442  0
O  O150  1  0.89546385  0.32278590  0.20019600  1  -1.271212  0  -0.237515  -0.601709  0  2.334419  0
O  O151  1  0.10299403  0.67648640  0.79965943  1  -1.269968  0  -0.237619  -0.602389  0  2.336113  0
O  O152  1  0.73447725  0.30747579  0.29345891  1  -1.250371  0  -0.237007  -0.582167  0  2.310536  0
O  O153  1  0.26340662  0.69245818  0.70648597  1  -1.254256  0  -0.236575  -0.582337  0  2.3112  0
O  O154  1  0.20941912  0.21149732  0.19724714  1  -1.262959  0  -0.241551  -0.597682  0  2.330103  0
O  O155  1  0.78845294  0.78787852  0.80322462  1  -1.26458  0  -0.241917  -0.596616  0  2.328137  0
O  O156  1  0.71722896  0.18035650  0.29325033  1  -1.260489  0  -0.229508  -0.591681  0  2.372159  0
O  O157  1  0.28057896  0.81948267  0.70734435  1  -1.264139  0  -0.229344  -0.592012  0  2.374213  0
O  O158  1  0.22423302  0.32972008  0.22145335  1  -1.273096  0  -0.238025  -0.595267  0  2.353073  0
O  O159  1  0.77401259  0.66976315  0.77855235  1  -1.274322  0  -0.238009  -0.595759  0  2.35336  0
O  O160  1  0.86994487  0.20083060  0.20333538  1  -1.256196  0  -0.240275  -0.594923  0  2.377819  0
O  O161  1  0.12801505  0.79827969  0.79721356  1  -1.256181  0  -0.241267  -0.595733  0  2.378967  0
O  O162  1  0.40832460  0.28013696  0.30823373  1  -1.274829  0  -0.246195  -0.615174  0  2.387063  0
O  O163  1  0.58987793  0.71958860  0.69182293  1  -1.272651  0  -0.246214  -0.614438  0  2.38352  0
O  O164  1  0.54604652  0.26349569  0.21932499  1  -1.422435  0  -0.449726  -0.981597  0  2.186526  0
O  O165  1  0.45205392  0.73580808  0.78091622  1  -1.418331  0  -0.449537  -0.98097  0  2.186325  0
O  O166  1  0.05207038  0.23714080  0.28238466  1  -1.422578  0  -0.451172  -0.984679  0  2.181178  0
O  O167  1  0.94582540  0.76262191  0.71790435  1  -1.426862  0  -0.451294  -0.984704  0  2.181211  0
