# generated using pymatgen
data_Al3H40C45Cl3O17
_symmetry_space_group_name_H-M   'P 1'
_cell_length_a   13.91092112
_cell_length_b   13.84310940
_cell_length_c   28.06224795
_cell_angle_alpha   90.17813990
_cell_angle_beta   90.33026362
_cell_angle_gamma   60.17866266
_symmetry_Int_Tables_number   1
_chemical_formula_structural   Al3H40C45Cl3O17
_chemical_formula_sum   'Al6 H80 C90 Cl6 O34'
_cell_volume   4688.28986556
_cell_formula_units_Z   2
loop_
 _symmetry_equiv_pos_site_id
 _symmetry_equiv_pos_as_xyz
  1  'x, y, z'
loop_
 _atom_site_type_symbol
 _atom_site_label
 _atom_site_symmetry_multiplicity
 _atom_site_fract_x
 _atom_site_fract_y
 _atom_site_fract_z
 _atom_site_occupancy
 _atom_site_pbe_bader_charge
 _atom_site_pbe_bader_spin_density
 _atom_site_pbe_cm5_charge
 _atom_site_pbe_ddec_charge
 _atom_site_pbe_ddec_spin_density
 _atom_site_pbe_ddec_sum_bond_order
 _atom_site_pbe_magmom
Al  Al0  1  0.74652676  0.76176579  0.75137102  1  2.490979  0  0.400504  1.684313  0  2.546826  0
Al  Al1  1  0.75133771  0.52763301  0.75191361  1  2.480309  0  0.501651  1.657686  0  2.52059  0
Al  Al2  1  0.53001634  0.73570669  0.74926501  1  2.483307  0  0.506244  1.659905  0  2.510305  0
Al  Al3  1  0.26080826  0.51000143  0.24900289  1  2.4907  0  0.399214  1.68474  0  2.549692  0
Al  Al4  1  0.25334645  0.28183797  0.24946623  1  2.482383  0  0.502496  1.657437  0  2.520861  0
Al  Al5  1  0.47571350  0.26597759  0.24980242  1  2.483468  0  0.505295  1.657945  0  2.513585  0
H  H6  1  0.67327680  0.37864561  0.04331710  1  0.042683  0  0.096539  0.096303  0  0.975138  0
H  H7  1  0.38083795  0.95280117  0.05174722  1  0.01188  0  0.097505  0.09816  0  0.972888  0
H  H8  1  0.94689498  0.66022161  0.04788650  1  0.028972  0  0.097838  0.098399  0  0.972269  0
H  H9  1  0.33719964  0.10591083  0.94852026  1  0.049494  0  0.09553  0.094613  0  0.977551  0
H  H10  1  0.55216734  0.34205916  0.94220641  1  0.05139  0  0.09676  0.097037  0  0.975036  0
H  H11  1  0.11235029  0.53839229  0.94922439  1  0.042137  0  0.095898  0.095086  0  0.976363  0
H  H12  1  0.46480457  0.33853822  0.50097374  1  0.025824  0  0.096046  0.11305  0  1.005656  0
H  H13  1  0.36615489  0.18145536  0.49601547  1  0.06464  0  0.096383  0.112595  0  1.005949  0
H  H14  1  0.20123649  0.43890358  0.50220058  1  0.050409  0  0.09549  0.111699  0  1.008049  0
H  H15  1  0.54559089  0.79401668  0.49342373  1  0.053189  0  0.096932  0.115242  0  1.003385  0
H  H16  1  0.64834601  0.54226294  0.50642684  1  0.052613  0  0.096065  0.112283  0  1.00716  0
H  H17  1  0.81452442  0.63194134  0.50188216  1  0.082427  0  0.094718  0.109625  0  1.013859  0
H  H18  1  0.65407309  0.28861682  0.55017207  1  0.120836  0  0.106841  0.091184  0  1.006405  0
H  H19  1  0.30628623  0.04603470  0.54239790  1  0.107112  0  0.107027  0.091185  0  1.004858  0
H  H20  1  0.05978302  0.63254371  0.55157640  1  0.114997  0  0.107153  0.091825  0  1.002425  0
H  H21  1  0.35585687  0.93908777  0.44683887  1  0.122451  0  0.107518  0.092572  0  1.004652  0
H  H22  1  0.70774812  0.35011103  0.45671826  1  0.120336  0  0.106637  0.090828  0  1.004675  0
H  H23  1  0.95677579  0.68887675  0.45549713  1  0.125756  0  0.106524  0.09043  0  1.008102  0
H  H24  1  0.68976795  0.40776999  0.96232271  1  0.054818  0  0.096243  0.095196  0  0.978786  0
H  H25  1  0.39981034  0.90444912  0.97093758  1  0.023057  0  0.095794  0.094525  0  0.978918  0
H  H26  1  0.90899517  0.67770857  0.96581908  1  0.025039  0  0.09756  0.09757  0  0.974621  0
H  H27  1  0.31857082  0.15301992  0.02942682  1  0.034639  0  0.093911  0.090903  0  0.986672  0
H  H28  1  0.53506010  0.31446564  0.02325685  1  0.007088  0  0.093351  0.08932  0  0.987452  0
H  H29  1  0.14883688  0.52137583  0.03135206  1  0.049548  0  0.095194  0.093351  0  0.981404  0
H  H30  1  0.40899527  0.43964854  0.93930449  1  0.036479  0  0.096099  0.09578  0  0.976293  0
H  H31  1  0.43645930  0.14915238  0.94246084  1  0.024904  0  0.096141  0.096604  0  0.974794  0
H  H32  1  0.15692645  0.39474092  0.94592549  1  0.016551  0  0.09417  0.093402  0  0.978089  0
H  H33  1  0.52280585  0.85717670  0.06095134  1  0.043773  0  0.095046  0.093682  0  0.977395  0
H  H34  1  0.62577335  0.52078791  0.05471990  1  0.02609  0  0.094726  0.092824  0  0.978459  0
H  H35  1  0.85093019  0.61343803  0.05596696  1  0.029251  0  0.093071  0.090454  0  0.980034  0
H  H36  1  0.39201441  0.41276997  0.02036676  1  0.055273  0  0.093295  0.090722  0  0.99002  0
H  H37  1  0.41723590  0.19706007  0.02320876  1  0.005108  0  0.092649  0.088912  0  0.996006  0
H  H38  1  0.19357571  0.37776479  0.02791770  1  0.039341  0  0.09175  0.087301  0  0.99844  0
H  H39  1  0.54207635  0.80953674  0.98013993  1  0.035804  0  0.091243  0.086038  0  0.991708  0
H  H40  1  0.64094764  0.55016198  0.97368705  1  0.021857  0  0.091696  0.086221  0  0.990466  0
H  H41  1  0.81415649  0.62961244  0.97391475  1  0.025876  0  0.091021  0.085071  0  0.991462  0
H  H42  1  0.43485551  0.68957896  0.96914709  1  0.0235  0  0.092751  0.090432  0  0.996525  0
H  H43  1  0.68367350  0.87245550  0.97098679  1  0.035141  0  0.094615  0.094289  0  0.985315  0
H  H44  1  0.87898956  0.42335872  0.96865320  1  0.030501  0  0.09266  0.091001  0  0.99194  0
H  H45  1  0.62157753  0.05989341  0.03634188  1  0.03154  0  0.094803  0.093383  0  0.979687  0
H  H46  1  0.32417288  0.61651476  0.03674709  1  0.035844  0  0.097248  0.097289  0  0.974194  0
H  H47  1  0.05571285  0.31012103  0.03964302  1  0.037979  0  0.094373  0.093148  0  0.97939  0
H  H48  1  0.34004684  0.64390268  0.95542137  1  0.036952  0  0.096448  0.095929  0  0.974784  0
H  H49  1  0.64063430  0.01137393  0.95547311  1  0.033882  0  0.097919  0.098818  0  0.971168  0
H  H50  1  0.01950928  0.32708820  0.95745950  1  0.072982  0  0.094874  0.094021  0  0.976744  0
H  H51  1  0.66547296  0.92065635  0.05182332  1  0.037343  0  0.09615  0.096352  0  0.975752  0
H  H52  1  0.41940892  0.66154427  0.05037115  1  0.021994  0  0.096842  0.097638  0  0.973525  0
H  H53  1  0.91520876  0.40650992  0.05077233  1  0.058063  0  0.094529  0.094538  0  0.977158  0
H  H54  1  0.42203479  0.60567924  0.46513594  1  0.049518  0  0.114661  0.069864  0  0.949066  0
H  H55  1  0.62158940  0.95041339  0.45564296  1  0.068267  0  0.115508  0.070002  0  0.94789  0
H  H56  1  0.97459254  0.40623629  0.45960230  1  0.065513  0  0.115209  0.070368  0  0.945793  0
H  H57  1  0.59302264  0.01262287  0.53467047  1  0.011248  0  0.114934  0.06996  0  0.948293  0
H  H58  1  0.38973056  0.56791286  0.54269859  1  0.08611  0  0.115163  0.069941  0  0.949186  0
H  H59  1  0.04032539  0.36885369  0.53931817  1  0.046468  0  0.114576  0.069496  0  0.948056  0
H  H60  1  0.51457782  0.64223605  0.52666515  1  0.079663  0  0.092855  0.108455  0  1.019596  0
H  H61  1  0.65265717  0.81791278  0.51444429  1  0.103218  0  0.092897  0.106585  0  1.019526  0
H  H62  1  0.84541779  0.49708445  0.52039582  1  0.068104  0  0.089186  0.102381  0  1.033703  0
H  H63  1  0.49978026  0.14772306  0.47561595  1  0.074276  0  0.093033  0.107867  0  1.019286  0
H  H64  1  0.35944410  0.47113568  0.48107009  1  0.093918  0  0.092414  0.107872  0  1.021281  0
H  H65  1  0.17120910  0.33655080  0.48006943  1  0.088124  0  0.089476  0.10301  0  1.033307  0
H  H66  1  0.56455057  0.32337070  0.61633690  1  0.055526  0  0.094683  0.09493  0  1.006833  0
H  H67  1  0.51041029  0.26617487  0.57265311  1  0.054534  0  0.090185  0.088672  0  1.042538  0
H  H68  1  0.44328098  0.31569875  0.62824586  1  0.064251  0  0.108859  0.114977  0  0.982611  0
H  H69  1  0.34869909  0.09245894  0.60902352  1  0.048472  0  0.095234  0.097172  0  1.007603  0
H  H70  1  0.29767001  0.20745348  0.56757600  1  0.045243  0  0.088852  0.086865  0  1.041625  0
H  H71  1  0.35349031  0.21485124  0.62360159  1  0.05668  0  0.108213  0.113383  0  0.986383  0
H  H72  1  0.11480618  0.53660537  0.61681936  1  0.037115  0  0.095221  0.096777  0  1.005155  0
H  H73  1  0.22611236  0.48030838  0.57386099  1  0.052983  0  0.088625  0.085879  0  1.044868  0
H  H74  1  0.24057959  0.41141197  0.62885072  1  0.052525  0  0.107753  0.114004  0  0.982138  0
H  H75  1  0.44182825  0.89244285  0.37926490  1  0.049256  0  0.094149  0.094745  0  1.009575  0
H  H76  1  0.49645777  0.77537476  0.41990215  1  0.064754  0  0.090523  0.08973  0  1.049383  0
H  H77  1  0.56155703  0.76470247  0.36433102  1  0.055022  0  0.109687  0.117141  0  0.972875  0
H  H78  1  0.66772220  0.44479956  0.39072379  1  0.061056  0  0.095205  0.096739  0  1.005782  0
H  H79  1  0.71898833  0.50220528  0.43552022  1  0.052521  0  0.089165  0.086821  0  1.039144  0
H  H80  1  0.66675978  0.57194904  0.38050301  1  0.080484  0  0.108304  0.114091  0  0.989167  0
H  H81  1  0.89925823  0.65841527  0.38872020  1  0.055489  0  0.095704  0.097454  0  1.001886  0
H  H82  1  0.79212826  0.70737111  0.43345591  1  0.026708  0  0.08872  0.084879  0  1.037641  0
H  H83  1  0.77108094  0.66311712  0.37700980  1  0.064186  0  0.108269  0.11573  0  0.985559  0
H  H84  1  0.85057952  0.84094026  0.72447319  1  0.577491  0  0.294001  0.385263  0  0.919674  0
H  H85  1  0.15520458  0.69403053  0.27521251  1  0.584954  0  0.293425  0.384681  0  0.920739  0
C  C86  1  0.87480889  0.56755355  0.81760879  1  1.659945  0  0.279338  0.720134  0  4.151039  0
C  C87  1  0.57762843  0.56231491  0.81563931  1  1.658208  0  0.284558  0.733444  0  4.135952  0
C  C88  1  0.55158362  0.86847390  0.81741099  1  1.667182  0  0.282077  0.71962  0  4.150242  0
C  C89  1  0.12835789  0.44455780  0.18439537  1  1.618394  0  0.278786  0.718315  0  4.152965  0
C  C90  1  0.42325575  0.14234138  0.18400329  1  1.619506  0  0.284837  0.733328  0  4.136044  0
C  C91  1  0.45318531  0.42016598  0.18173035  1  1.660443  0  0.28127  0.718254  0  4.153891  0
C  C92  1  0.45011396  0.47818007  0.54321026  1  0.494744  0  0.01525  0.136534  0  3.808764  0
C  C93  1  0.50269870  0.04718732  0.53570123  1  0.547262  0  0.014904  0.136424  0  3.804153  0
C  C94  1  0.07175766  0.42768159  0.54132441  1  0.523387  0  0.014171  0.137161  0  3.806566  0
C  C95  1  0.56038767  0.92212237  0.45412241  1  0.494324  0  0.014643  0.135159  0  3.809003  0
C  C96  1  0.51224514  0.54915808  0.46445534  1  0.512888  0  0.014527  0.13717  0  3.807412  0
C  C97  1  0.94384425  0.49642817  0.46023770  1  0.504627  0  0.014549  0.137896  0  3.80492  0
C  C98  1  0.48228047  0.41417615  0.36900030  1  0.225282  0  -0.031928  -0.182473  0  3.932466  0
C  C99  1  0.42704327  0.10387804  0.36285752  1  -0.004484  0  -0.032069  -0.194021  0  3.922021  0
C  C100  1  0.11505072  0.46238471  0.36890113  1  -0.037408  0  -0.034324  -0.186349  0  3.93743  0
C  C101  1  0.53192291  0.87889423  0.62823602  1  -0.23049  0  -0.0319  -0.180298  0  3.927276  0
C  C102  1  0.58101978  0.52070102  0.63756368  1  0.234254  0  -0.032541  -0.194453  0  3.926814  0
C  C103  1  0.89917230  0.56120993  0.63407995  1  0.303557  0  -0.034085  -0.187016  0  3.939427  0
C  C104  1  0.56722148  0.47060645  0.54734114  1  0.09232  0  -0.002707  0.078569  0  3.877354  0
C  C105  1  0.48646566  0.94177357  0.53778406  1  0.122651  0  -0.002266  0.085053  0  3.86797  0
C  C106  1  0.96429801  0.54659738  0.54451556  1  0.123327  0  -0.003941  0.083343  0  3.879431  0
C  C107  1  0.44393072  0.03285469  0.45199332  1  0.11346  0  -0.002322  0.078397  0  3.875857  0
C  C108  1  0.52718102  0.42841179  0.45995373  1  0.113237  0  -0.002053  0.0837  0  3.873301  0
C  C109  1  0.05201570  0.50712605  0.45893017  1  0.117178  0  -0.003267  0.081407  0  3.883418  0
C  C110  1  0.64562658  0.34078783  0.47663931  1  0.07797  0  -0.045602  0.006966  0  3.766014  0
C  C111  1  0.35232632  0.00709216  0.46801374  1  0.088961  0  -0.045542  0.005522  0  3.76565  0
C  C112  1  0.02427025  0.62445488  0.47659558  1  0.082237  0  -0.046181  0.00664  0  3.764353  0
C  C113  1  0.36695561  0.97593398  0.52127605  1  0.097839  0  -0.046253  0.005747  0  3.764781  0
C  C114  1  0.65874322  0.35398756  0.53042606  1  0.091725  0  -0.045464  0.005282  0  3.768105  0
C  C115  1  0.99228146  0.63776056  0.52962270  1  0.101574  0  -0.044808  0.007558  0  3.759627  0
C  C116  1  0.50422525  0.41320767  0.41100878  1  -0.450741  0  -0.023559  -0.022167  0  4.034362  0
C  C117  1  0.42814911  0.07639249  0.40402987  1  -0.195797  0  -0.009217  0.006903  0  4.006915  0
C  C118  1  0.09271429  0.48427332  0.41068645  1  -0.198761  0  -0.021687  -0.018187  0  4.040746  0
C  C119  1  0.51033021  0.90004947  0.58621318  1  -0.008335  0  -0.023609  -0.025972  0  4.026604  0
C  C120  1  0.58146785  0.49548862  0.59604063  1  -0.457762  0  -0.009104  0.007292  0  4.013104  0
C  C121  1  0.92314089  0.56095037  0.59257228  1  -0.562612  0  -0.021327  -0.016977  0  4.043381  0
C  C122  1  0.86421200  0.57274461  0.68275079  1  1.670915  0  0.278782  0.720212  0  4.157821  0
C  C123  1  0.58864277  0.55436470  0.68505603  1  1.673132  0  0.285691  0.724996  0  4.147267  0
C  C124  1  0.55980555  0.85176537  0.67777288  1  1.657152  0  0.277238  0.710286  0  4.153911  0
C  C125  1  0.14663958  0.43991365  0.31978006  1  1.652894  0  0.278188  0.719613  0  4.157413  0
C  C126  1  0.41804874  0.14537282  0.31536409  1  1.629038  0  0.285692  0.724561  0  4.145515  0
C  C127  1  0.45199006  0.41337937  0.31996993  1  1.664868  0  0.277742  0.711915  0  4.156791  0
C  C128  1  0.62215412  0.48258407  0.97891374  1  -0.04482  0  -0.152154  -0.186487  0  3.848223  0
C  C129  1  0.47690669  0.89653108  0.98550502  1  -0.037979  0  -0.153211  -0.187972  0  3.851136  0
C  C130  1  0.89966624  0.61010101  0.98137303  1  -0.023275  0  -0.15273  -0.186574  0  3.848978  0
C  C131  1  0.40267025  0.12697276  0.01681460  1  -0.007989  0  -0.151432  -0.185544  0  3.840963  0
C  C132  1  0.47485675  0.39991792  0.01235595  1  -0.037179  0  -0.150952  -0.183796  0  3.841415  0
C  C133  1  0.12478762  0.46095774  0.01893319  1  -0.052467  0  -0.151493  -0.184953  0  3.841666  0
C  C134  1  0.48596534  0.41801946  0.95870566  1  -0.029581  0  -0.151021  -0.186361  0  3.842801  0
C  C135  1  0.41510988  0.09545475  0.96332840  1  -0.022184  0  -0.151316  -0.185977  0  3.842201  0
C  C136  1  0.10063252  0.47221959  0.96476636  1  -0.018606  0  -0.151833  -0.184751  0  3.847559  0
C  C137  1  0.46447897  0.92807995  0.03897416  1  0.000286  0  -0.151616  -0.186516  0  3.844311  0
C  C138  1  0.61158454  0.46356756  0.03244417  1  -0.025422  0  -0.152931  -0.187701  0  3.850825  0
C  C139  1  0.92405108  0.59893896  0.03547264  1  -0.020078  0  -0.15247  -0.186062  0  3.851435  0
C  C140  1  0.47759750  0.44264433  0.13461432  1  0.10809  0  -0.047742  -0.220243  0  3.97365  0
C  C141  1  0.45287959  0.08854072  0.13835989  1  0.238428  0  -0.051064  -0.231226  0  3.963498  0
C  C142  1  0.07436916  0.46343568  0.13886692  1  0.180963  0  -0.050714  -0.22311  0  3.982257  0
C  C143  1  0.52648018  0.91532446  0.86469579  1  0.010324  0  -0.048426  -0.22053  0  3.968177  0
C  C144  1  0.54546534  0.53937786  0.86079713  1  0.10237  0  -0.050422  -0.232044  0  3.966528  0
C  C145  1  0.92766219  0.53380918  0.86338740  1  0.283498  0  -0.0501  -0.223236  0  3.984038  0
C  C146  1  0.51240809  0.51361711  0.95222415  1  0.144996  0  0.002342  0.163938  0  3.897036  0
C  C147  1  0.50744802  0.97263923  0.95650697  1  0.156341  0  0.002217  0.168986  0  3.893058  0
C  C148  1  0.97971322  0.49971535  0.95550144  1  0.142695  0  0.001212  0.167198  0  3.901898  0
C  C149  1  0.48686477  0.02604030  0.04714892  1  0.117229  0  0.002563  0.163591  0  3.895849  0
C  C150  1  0.49424621  0.48238545  0.04298940  1  0.142712  0  0.00113  0.167889  0  3.89674  0
C  C151  1  0.02050210  0.48055898  0.04694213  1  0.138023  0  0.001421  0.166613  0  3.90495  0
C  C152  1  0.40715256  0.60270462  0.02836518  1  -0.012303  0  -0.152254  -0.186013  0  3.838242  0
C  C153  1  0.60547538  0.99081873  0.02996451  1  -0.016179  0  -0.15295  -0.1879  0  3.846241  0
C  C154  1  0.98799436  0.39375198  0.03048724  1  -0.061548  0  -0.154004  -0.188118  0  3.850799  0
C  C155  1  0.61772371  0.95902997  0.97643072  1  -0.026766  0  -0.151709  -0.185756  0  3.834831  0
C  C156  1  0.41753854  0.62112084  0.97460910  1  -0.02115  0  -0.152951  -0.187745  0  3.843938  0
C  C157  1  0.96407447  0.40488266  0.97624303  1  -0.0671  0  -0.152877  -0.186201  0  3.845645  0
C  C158  1  0.48501729  0.46231997  0.09303215  1  -0.378187  0  -0.013543  -0.022709  0  4.015615  0
C  C159  1  0.47140604  0.05807022  0.09704158  1  -0.473394  0  -0.001658  0.00094  0  3.988652  0
C  C160  1  0.04663907  0.47068270  0.09731606  1  -0.420784  0  -0.012837  -0.020238  0  4.022851  0
C  C161  1  0.51777170  0.94253724  0.90639014  1  -0.301581  0  -0.012785  -0.022265  0  4.009035  0
C  C162  1  0.52657166  0.52882294  0.90214495  1  -0.376021  0  -0.002712  0.001169  0  3.991913  0
C  C163  1  0.95458760  0.51419204  0.90502382  1  -0.558035  0  -0.013867  -0.02171  0  4.024251  0
C  C164  1  0.56357068  0.55804166  0.51194064  1  -0.050477  0  -0.162527  -0.279858  0  3.861735  0
C  C165  1  0.56755936  0.85882190  0.50047891  1  -0.089614  0  -0.162008  -0.27839  0  3.850614  0
C  C166  1  0.88210656  0.54607264  0.50727366  1  -0.094103  0  -0.164386  -0.280599  0  3.868302  0
C  C167  1  0.45023762  0.11225094  0.48931545  1  -0.063607  0  -0.162516  -0.279139  0  3.860181  0
C  C168  1  0.44394295  0.42545858  0.49558592  1  -0.04482  0  -0.163598  -0.279669  0  3.855503  0
C  C169  1  0.13401126  0.42077404  0.49507479  1  -0.070811  0  -0.164709  -0.279733  0  3.865093  0
C  C170  1  0.48900747  0.33031746  0.60019886  1  0.371459  0  -0.145899  -0.17244  0  3.92379  0
C  C171  1  0.36168047  0.15873378  0.59434622  1  0.391639  0  -0.14664  -0.173681  0  3.92532  0
C  C172  1  0.18146319  0.46005807  0.60066505  1  0.406808  0  -0.14608  -0.173207  0  3.928177  0
C  C173  1  0.51741399  0.82122672  0.39389778  1  0.378526  0  -0.147103  -0.17693  0  3.924285  0
C  C174  1  0.65588803  0.52173211  0.40772045  1  0.351235  0  -0.146003  -0.171464  0  3.92151  0
C  C175  1  0.83337062  0.64690127  0.40455378  1  0.398994  0  -0.146147  -0.1731  0  3.932703  0
Cl  Cl176  1  0.79524542  0.33144117  0.54322017  1  -0.25123  0  -0.033876  -0.116298  0  1.389781  0
Cl  Cl177  1  0.33472800  0.86697579  0.53159348  1  -0.252299  0  -0.03771  -0.120111  0  1.381696  0
Cl  Cl178  1  0.87793133  0.77536737  0.54060250  1  -0.247549  0  -0.037563  -0.120214  0  1.374927  0
Cl  Cl179  1  0.21575182  0.12257139  0.45709087  1  -0.247525  0  -0.033629  -0.116359  0  1.390367  0
Cl  Cl180  1  0.67564483  0.20107576  0.46392948  1  -0.249275  0  -0.038702  -0.120857  0  1.378134  0
Cl  Cl181  1  0.13832440  0.64918624  0.46769695  1  -0.255548  0  -0.036633  -0.119893  0  1.381754  0
O  O182  1  0.63790054  0.85795420  0.79801446  1  -1.221732  0  -0.199733  -0.534819  0  2.279661  0
O  O183  1  0.86639947  0.49195782  0.79353151  1  -1.261357  0  -0.246208  -0.616355  0  2.226318  0
O  O184  1  0.50442083  0.64573436  0.79187681  1  -1.253832  0  -0.228975  -0.59489  0  2.245773  0
O  O185  1  0.36789121  0.49639698  0.20167465  1  -1.222869  0  -0.199968  -0.534921  0  2.281432  0
O  O186  1  0.13626545  0.36156226  0.20888603  1  -1.264706  0  -0.246607  -0.615561  0  2.222582  0
O  O187  1  0.49829540  0.15059774  0.20740258  1  -1.247875  0  -0.229285  -0.595543  0  2.244153  0
O  O188  1  0.83726867  0.66761635  0.80546295  1  -1.211212  0  -0.20356  -0.54441  0  2.270228  0
O  O189  1  0.67895557  0.50055675  0.80355023  1  -1.245083  0  -0.226638  -0.588617  0  2.237447  0
O  O190  1  0.48553618  0.83735706  0.79949327  1  -1.258202  0  -0.243702  -0.60956  0  2.225395  0
O  O191  1  0.16738212  0.50633155  0.19594962  1  -1.206234  0  -0.203148  -0.544588  0  2.274051  0
O  O192  1  0.32253265  0.18247494  0.19706517  1  -1.236697  0  -0.226618  -0.588025  0  2.237166  0
O  O193  1  0.51852433  0.32228410  0.19885928  1  -1.260446  0  -0.242944  -0.608112  0  2.229648  0
O  O194  1  0.65329671  0.83380939  0.69197785  1  -1.204475  0  -0.20611  -0.546076  0  2.269474  0
O  O195  1  0.84310814  0.49829278  0.69883860  1  -1.251011  0  -0.238855  -0.599014  0  2.230297  0
O  O196  1  0.51478802  0.65189323  0.69797406  1  -1.245625  0  -0.224113  -0.583391  0  2.243893  0
O  O197  1  0.35828653  0.48939957  0.30630284  1  -1.213393  0  -0.205408  -0.547414  0  2.275117  0
O  O198  1  0.16491169  0.34528165  0.30344556  1  -1.241873  0  -0.239289  -0.599226  0  2.232828  0
O  O199  1  0.49177687  0.16848333  0.30177904  1  -1.237534  0  -0.223663  -0.581838  0  2.239981  0
O  O200  1  0.85444418  0.65621322  0.70537938  1  -1.230386  0  -0.215493  -0.578208  0  2.300003  0
O  O201  1  0.67131239  0.48579176  0.71051119  1  -1.247375  0  -0.229465  -0.591755  0  2.244508  0
O  O202  1  0.48590174  0.84633211  0.70381550  1  -1.258809  0  -0.249654  -0.615755  0  2.215867  0
O  O203  1  0.15625503  0.51325539  0.29700710  1  -1.231078  0  -0.215299  -0.577563  0  2.297813  0
O  O204  1  0.33439322  0.15977911  0.29044352  1  -1.243632  0  -0.229505  -0.592485  0  2.2439  0
O  O205  1  0.52367680  0.33202404  0.29400108  1  -1.262518  0  -0.248536  -0.614288  0  2.21918  0
O  O206  1  0.67540101  0.67422448  0.75083295  1  -1.613949  0  -0.392055  -1.275569  0  2.310749  0
O  O207  1  0.33052644  0.35120877  0.24947947  1  -1.612319  0  -0.391938  -1.275331  0  2.310459  0
O  O208  1  0.41637340  0.44049570  0.58309019  1  -1.060897  0  -0.231305  -0.210398  0  2.520713  0
O  O209  1  0.47180964  0.11523902  0.57676973  1  -1.045304  0  -0.228946  -0.205119  0  2.519477  0
O  O210  1  0.14032071  0.39104803  0.58230834  1  -1.053689  0  -0.230844  -0.208593  0  2.516043  0
O  O211  1  0.59192045  0.85504354  0.41274042  1  -1.050263  0  -0.231619  -0.211501  0  2.518628  0
O  O212  1  0.54532636  0.58828005  0.42484726  1  -1.05319  0  -0.228705  -0.206103  0  2.524005  0
O  O213  1  0.87470439  0.53442942  0.41944020  1  -1.048758  0  -0.229732  -0.206877  0  2.518444  0
O  O214  1  0.80492066  0.84813990  0.75159541  1  -1.360571  0  -0.575396  -0.994  0  1.789877  0
O  O215  1  0.20167730  0.65487097  0.24834736  1  -1.368511  0  -0.576225  -0.994813  0  1.7907  0
