# generated using pymatgen
data_Zr3H33C44N7O16
_symmetry_space_group_name_H-M   'P 1'
_cell_length_a   19.07111943
_cell_length_b   19.06571096
_cell_length_c   19.06822008
_cell_angle_alpha   59.87028490
_cell_angle_beta   59.98845475
_cell_angle_gamma   59.99869691
_symmetry_Int_Tables_number   1
_chemical_formula_structural   Zr3H33C44N7O16
_chemical_formula_sum   'Zr6 H66 C88 N14 O32'
_cell_volume   4897.27722291
_cell_formula_units_Z   2
loop_
 _symmetry_equiv_pos_site_id
 _symmetry_equiv_pos_as_xyz
  1  'x, y, z'
loop_
 _atom_site_type_symbol
 _atom_site_label
 _atom_site_symmetry_multiplicity
 _atom_site_fract_x
 _atom_site_fract_y
 _atom_site_fract_z
 _atom_site_occupancy
 _atom_site_pbe_bader_charge
 _atom_site_pbe_bader_spin_density
 _atom_site_pbe_cm5_charge
 _atom_site_pbe_ddec_charge
 _atom_site_pbe_ddec_spin_density
 _atom_site_pbe_ddec_sum_bond_order
 _atom_site_pbe_magmom
Zr  Zr0  1  0.90782636  0.40632336  0.59277909  1  2.635463  0  1.622861  2.372626  0  2.758018  0
Zr  Zr1  1  0.09303696  0.59226552  0.40687750  1  2.634757  0  1.62291  2.372741  0  2.757695  0
Zr  Zr2  1  0.09292613  0.40663803  0.59291812  1  2.634029  0  1.622734  2.372404  0  2.756856  0
Zr  Zr3  1  0.90749123  0.59237892  0.40717608  1  2.634281  0  1.62277  2.372247  0  2.756298  0
Zr  Zr4  1  0.90769029  0.59203728  0.59255404  1  2.632885  0  1.624232  2.372951  0  2.758779  0
Zr  Zr5  1  0.09302126  0.40674154  0.40723768  1  2.634737  0  1.622493  2.372263  0  2.756051  0
H  H6  1  0.92787966  0.42530535  0.71912662  1  0.603603  0  0.33097  0.421689  0  0.85842  0
H  H7  1  0.92763979  0.71860600  0.42585027  1  0.592992  0  0.330346  0.420627  0  0.860794  0
H  H8  1  0.21901480  0.42662486  0.42712781  1  0.586572  0  0.330135  0.419811  0  0.859972  0
H  H9  1  0.92723449  0.42664440  0.42708835  1  0.596325  0  0.330113  0.419953  0  0.85941  0
H  H10  1  0.28908565  0.63281309  0.14718291  1  0.091889  0  0.106798  0.122367  0  0.995989  0
H  H11  1  0.64353614  0.43491170  0.78762777  1  0.074907  0  0.105216  0.120799  0  0.997146  0
H  H12  1  0.71958351  0.56225298  0.85746699  1  0.066536  0  0.102319  0.112532  0  1.005302  0
H  H13  1  0.59314198  0.55529134  0.99312852  1  0.06521  0  0.102642  0.106947  0  0.993562  0
H  H14  1  0.35972285  0.35995406  0.21801467  1  0.088766  0  0.101961  0.111391  0  1.005372  0
H  H15  1  0.49562822  0.35978473  0.09203018  1  0.048366  0  0.099948  0.098947  0  0.999168  0
H  H16  1  0.13373542  0.78738116  0.43518155  1  0.078468  0  0.105442  0.121211  0  0.996997  0
H  H17  1  0.93081790  0.14676097  0.63311537  1  0.091491  0  0.10677  0.122588  0  0.996267  0
H  H18  1  0.06208355  0.21781587  0.36024119  1  0.091303  0  0.10184  0.111639  0  1.005475  0
H  H19  1  0.05220562  0.09197177  0.35993755  1  0.048224  0  0.099908  0.098751  0  0.998937  0
H  H20  1  0.86051196  0.85714510  0.56256470  1  0.095248  0  0.102239  0.112695  0  1.005656  0
H  H21  1  0.85816559  0.99293190  0.55542210  1  0.063162  0  0.102431  0.106692  0  0.99345  0
H  H22  1  0.28641064  0.14259390  0.43676430  1  0.073404  0  0.10671  0.122292  0  0.995421  0
H  H23  1  0.64354578  0.78521883  0.63433716  1  0.108879  0  0.106988  0.122622  0  0.995109  0
H  H24  1  0.72045663  0.86046427  0.35992609  1  0.06095  0  0.10087  0.111052  0  1.009444  0
H  H25  1  0.59496056  0.99669296  0.35875186  1  0.058759  0  0.100624  0.100728  0  0.99762  0
H  H26  1  0.35992827  0.21930963  0.56035064  1  0.075252  0  0.102346  0.112655  0  1.004996  0
H  H27  1  0.49633045  0.09385527  0.55100328  1  0.053543  0  0.100752  0.100751  0  0.99694  0
H  H28  1  0.93701414  0.63395489  0.78554961  1  0.083831  0  0.106926  0.122803  0  0.995008  0
H  H29  1  0.13448498  0.43650971  0.14292820  1  0.080897  0  0.106496  0.121755  0  0.995826  0
H  H30  1  0.86063524  0.56005043  0.21954107  1  0.097883  0  0.102205  0.112583  0  1.004812  0
H  H31  1  0.85916630  0.55077031  0.09398012  1  0.056685  0  0.101199  0.10158  0  0.996675  0
H  H32  1  0.05933763  0.35955083  0.86085693  1  0.08979  0  0.100599  0.110307  0  1.009723  0
H  H33  1  0.04999341  0.35845385  0.99695395  1  0.06073  0  0.100454  0.100619  0  0.997845  0
H  H34  1  0.11429683  0.81739942  0.17774736  1  0.084761  0  0.102184  0.103662  0  1.032055  0
H  H35  1  0.89397010  0.81433709  0.17626536  1  0.040208  0  0.10327  0.10379  0  1.031776  0
H  H36  1  0.89054160  0.17715857  0.81802448  1  0.055354  0  0.102137  0.10324  0  1.033095  0
H  H37  1  0.11548261  0.17559906  0.81486499  1  0.06072  0  0.103146  0.104021  0  1.031435  0
H  H38  1  0.29096272  0.42887580  0.63219626  1  0.092424  0  0.106866  0.1228  0  0.994962  0
H  H39  1  0.64801624  0.63160567  0.42929338  1  0.098946  0  0.106827  0.122506  0  0.994989  0
H  H40  1  0.71775039  0.35945255  0.56520158  1  0.081557  0  0.102688  0.11295  0  1.004486  0
H  H41  1  0.59252110  0.35737242  0.55620693  1  0.089456  0  0.103141  0.108474  0  0.992613  0
H  H42  1  0.35762862  0.56452137  0.35999867  1  0.07101  0  0.102706  0.113116  0  1.004678  0
H  H43  1  0.49390233  0.55553171  0.35795375  1  0.056382  0  0.102906  0.107723  0  0.992587  0
H  H44  1  0.46695112  0.65419109  0.94646870  1  0.444946  0  0.297548  0.290215  0  0.974955  0
H  H45  1  0.37192648  0.70623667  0.00853504  1  0.427427  0  0.305795  0.300962  0  0.944987  0
H  H46  1  0.45320718  0.41946076  0.97736181  1  0.437646  0  0.29408  0.288634  0  0.99515  0
H  H47  1  0.51841128  0.39287527  0.88596287  1  0.422435  0  0.305214  0.299082  0  0.948813  0
H  H48  1  0.14963787  0.97728191  0.41957565  1  0.447836  0  0.293975  0.288063  0  0.99557  0
H  H49  1  0.20247793  0.88585867  0.39301019  1  0.425889  0  0.305313  0.299272  0  0.948438  0
H  H50  1  0.93201482  0.94625204  0.65432254  1  0.451092  0  0.297333  0.290035  0  0.975508  0
H  H51  1  0.91303108  0.00823151  0.70641184  1  0.430249  0  0.305817  0.301202  0  0.945318  0
H  H52  1  0.47772122  0.95396736  0.41819720  1  0.44359  0  0.29389  0.286954  0  0.995068  0
H  H53  1  0.38552175  0.01824384  0.39294632  1  0.420206  0  0.305642  0.298553  0  0.947881  0
H  H54  1  0.45317179  0.97539163  0.65100016  1  0.435739  0  0.295491  0.289815  0  0.992774  0
H  H55  1  0.51825719  0.88368319  0.70413210  1  0.445978  0  0.307331  0.301596  0  0.94575  0
H  H56  1  0.92087129  0.65077885  0.97548044  1  0.437102  0  0.295756  0.290407  0  0.992238  0
H  H57  1  0.89427929  0.70382776  0.88384025  1  0.423292  0  0.307477  0.301744  0  0.945191  0
H  H58  1  0.15044785  0.41807177  0.95417671  1  0.447611  0  0.294056  0.287281  0  0.995127  0
H  H59  1  0.20362660  0.39274492  0.01847611  1  0.448337  0  0.305994  0.299404  0  0.947407  0
H  H60  1  0.46976016  0.43081722  0.65118409  1  0.433446  0  0.295849  0.288174  0  0.980284  0
H  H61  1  0.37371418  0.41392476  0.70372285  1  0.425971  0  0.30521  0.298808  0  0.945276  0
H  H62  1  0.44819282  0.65059419  0.43145518  1  0.430432  0  0.295768  0.288133  0  0.980711  0
H  H63  1  0.50858748  0.70313180  0.41455357  1  0.424112  0  0.304876  0.298697  0  0.944396  0
H  H64  1  0.20349121  0.11147531  0.86507254  1  0.427516  0  0.297614  0.28859  0  0.9686  0
H  H65  1  0.25594665  0.02257045  0.92840889  1  0.420143  0  0.294746  0.279865  0  0.968371  0
H  H66  1  0.18165343  0.88835966  0.13228267  1  0.421768  0  0.296624  0.286496  0  0.968085  0
H  H67  1  0.21059259  0.97563953  0.06551134  1  0.416262  0  0.294537  0.280117  0  0.968279  0
H  H68  1  0.79792201  0.13152842  0.88870115  1  0.423046  0  0.296795  0.287304  0  0.968281  0
H  H69  1  0.74823940  0.06507691  0.97614727  1  0.419329  0  0.294608  0.280258  0  0.967438  0
H  H70  1  0.82012105  0.86433036  0.11185694  1  0.418162  0  0.298118  0.289688  0  0.967255  0
H  H71  1  0.79296059  0.92801193  0.02313326  1  0.419479  0  0.294864  0.28016  0  0.967743  0
C  C72  1  0.76395973  0.50075448  0.73459059  1  1.546515  0  0.234633  0.643322  0  4.094578  0
C  C73  1  0.00058645  0.73418070  0.50122151  1  1.544946  0  0.235255  0.644299  0  4.091637  0
C  C74  1  0.23534603  0.49934188  0.26364495  1  1.536841  0  0.234623  0.641915  0  4.098734  0
C  C75  1  0.00163732  0.26321840  0.49973114  1  1.566263  0  0.234367  0.64188  0  4.098313  0
C  C76  1  0.00283123  0.25981659  0.73330385  1  1.547299  0  0.234521  0.641452  0  4.094307  0
C  C77  1  0.76375471  0.49937994  0.50201329  1  1.562719  0  0.234566  0.641191  0  4.098167  0
C  C78  1  0.00402656  0.73275179  0.26040970  1  1.530609  0  0.233914  0.640916  0  4.094358  0
C  C79  1  0.23477422  0.50150045  0.49996256  1  1.555529  0  0.234112  0.640863  0  4.097276  0
C  C80  1  0.00202898  0.49959570  0.73468278  1  1.551703  0  0.234609  0.641303  0  4.098715  0
C  C81  1  0.23460204  0.26261516  0.50228522  1  1.534765  0  0.235182  0.643273  0  4.094457  0
C  C82  1  0.00057840  0.50186250  0.26307767  1  1.559901  0  0.234976  0.643425  0  4.094079  0
C  C83  1  0.76369305  0.73420115  0.50007911  1  1.565247  0  0.234059  0.641183  0  4.098636  0
C  C84  1  0.31611113  0.49726803  0.18839497  1  -0.006849  0  -0.022609  -0.02445  0  4.029719  0
C  C85  1  0.68817806  0.49879683  0.81501048  1  -0.039329  0  -0.022309  -0.021803  0  4.028036  0
C  C86  1  0.33439647  0.57344385  0.13333650  1  -0.021742  0  -0.098098  -0.210191  0  3.93876  0
C  C87  1  0.40838693  0.57502851  0.06011362  1  0.354649  0  0.095432  0.256594  0  4.083257  0
C  C88  1  0.63127916  0.46168084  0.83318027  1  -0.037371  0  -0.102214  -0.218892  0  3.94862  0
C  C89  1  0.55763172  0.46130319  0.90684282  1  0.380781  0  0.093498  0.256504  0  4.093999  0
C  C90  1  0.67429666  0.53412942  0.87189111  1  0.018788  0  -0.107466  -0.140358  0  4.039661  0
C  C91  1  0.60338659  0.53072877  0.94674962  1  -0.106533  0  -0.097192  -0.128432  0  4.048955  0
C  C92  1  0.37364826  0.41944746  0.17353936  1  -0.034635  0  -0.107576  -0.138113  0  4.041181  0
C  C93  1  0.44848295  0.42021415  0.10270998  1  -0.035525  0  -0.100661  -0.138679  0  4.065134  0
C  C94  1  0.46676074  0.49663807  0.04403047  1  -0.017456  0  -0.018373  -0.024973  0  3.959364  0
C  C95  1  0.54374643  0.49577266  0.96561363  1  0.048182  0  -0.02137  -0.036114  0  3.967436  0
C  C96  1  0.99783115  0.81471117  0.49911606  1  -0.039013  0  -0.022862  -0.02243  0  4.027369  0
C  C97  1  0.99805543  0.18808686  0.49756593  1  0.006462  0  -0.022541  -0.023474  0  4.028286  0
C  C98  1  0.07365294  0.83294588  0.46190676  1  -0.029179  0  -0.102074  -0.218695  0  3.949512  0
C  C99  1  0.07395799  0.90668463  0.46144232  1  0.370314  0  0.093501  0.256182  0  4.095712  0
C  C100  1  0.95865219  0.13299776  0.57370980  1  -0.021686  0  -0.098195  -0.211196  0  3.940164  0
C  C101  1  0.95620793  0.05986046  0.57521758  1  0.443686  0  0.095312  0.256388  0  4.083555  0
C  C102  1  0.03310587  0.17333466  0.41970490  1  -0.100657  0  -0.107519  -0.139078  0  4.040579  0
C  C103  1  0.02827439  0.10257548  0.42039879  1  -0.039686  0  -0.100388  -0.137756  0  4.064006  0
C  C104  1  0.91947643  0.87163732  0.53436020  1  -0.01642  0  -0.107239  -0.141221  0  4.039537  0
C  C105  1  0.91887714  0.94656720  0.53086892  1  -0.069918  0  -0.097439  -0.127886  0  4.0476  0
C  C106  1  0.99458581  0.96545347  0.49588664  1  0.016803  0  -0.020847  -0.035259  0  3.966349  0
C  C107  1  0.99225818  0.04386582  0.49678209  1  -0.041072  0  -0.018454  -0.025396  0  3.959673  0
C  C108  1  0.31528604  0.18714853  0.49950324  1  -0.023293  0  -0.022316  -0.022325  0  4.024028  0
C  C109  1  0.68821981  0.81489494  0.49787666  1  -0.001563  0  -0.022049  -0.021312  0  4.026598  0
C  C110  1  0.33267877  0.13042144  0.46266151  1  0.005728  0  -0.098563  -0.213093  0  3.939282  0
C  C111  1  0.40666283  0.05711734  0.46133644  1  0.421835  0  0.095102  0.258045  0  4.088151  0
C  C112  1  0.63136379  0.83179109  0.57430308  1  -0.074682  0  -0.098998  -0.215095  0  3.939996  0
C  C113  1  0.55782377  0.90560209  0.57520193  1  0.394295  0  0.095217  0.260426  0  4.089946  0
C  C114  1  0.67488171  0.87351829  0.41945574  1  0.026016  0  -0.10886  -0.141654  0  4.043895  0
C  C115  1  0.60418006  0.94856525  0.41961325  1  -0.087939  0  -0.100463  -0.138986  0  4.067695  0
C  C116  1  0.37346555  0.17379112  0.53303321  1  -0.037894  0  -0.107542  -0.13936  0  4.039327  0
C  C117  1  0.44860492  0.10320617  0.52857333  1  -0.053602  0  -0.099829  -0.138509  0  4.065981  0
C  C118  1  0.46631540  0.04336465  0.49459544  1  -0.046924  0  -0.018822  -0.027087  0  3.961301  0
C  C119  1  0.54412624  0.96569587  0.49596019  1  -0.011318  0  -0.018782  -0.027454  0  3.959  0
C  C120  1  0.99914431  0.49748801  0.81527317  1  -0.047546  0  -0.022197  -0.021587  0  4.027584  0
C  C121  1  0.99828325  0.49919238  0.18747596  1  0.009876  0  -0.021757  -0.022104  0  4.025391  0
C  C122  1  0.96271951  0.57394061  0.83210329  1  -0.023424  0  -0.099035  -0.21496  0  3.940443  0
C  C123  1  0.96169690  0.57489669  0.90581496  1  0.396945  0  0.09563  0.260241  0  4.090154  0
C  C124  1  0.07450313  0.46241076  0.13072905  1  -0.017496  0  -0.098399  -0.212429  0  3.940168  0
C  C125  1  0.07521041  0.46111864  0.05737586  1  0.41681  0  0.094698  0.257567  0  4.089165  0
C  C126  1  0.91996565  0.53274573  0.17404196  1  -0.101641  0  -0.107618  -0.139121  0  4.040122  0
C  C127  1  0.91993702  0.52832070  0.10340528  1  -0.044453  0  -0.099815  -0.139595  0  4.066411  0
C  C128  1  0.03236731  0.41909962  0.87387432  1  -0.028904  0  -0.108315  -0.14006  0  4.043211  0
C  C129  1  0.02798190  0.41929927  0.94884135  1  -0.033688  0  -0.100244  -0.139154  0  4.067443  0
C  C130  1  0.99458716  0.49567811  0.96591638  1  -0.020635  0  -0.019466  -0.028289  0  3.960679  0
C  C131  1  0.99608132  0.49436256  0.04357621  1  -0.015379  0  -0.019117  -0.026626  0  3.960409  0
C  C132  1  0.06655204  0.84867561  0.14636030  1  -0.111744  0  -0.096635  -0.155984  0  3.964884  0
C  C133  1  0.06737957  0.92279045  0.07301541  1  -0.002494  0  -0.012696  0.003563  0  4.040364  0
C  C134  1  0.13100970  0.96261360  0.03513316  1  0.372293  0  0.070842  0.121662  0  4.077725  0
C  C135  1  0.94092289  0.84666152  0.14510606  1  -0.062473  0  -0.094521  -0.150958  0  3.960793  0
C  C136  1  0.93860606  0.92098502  0.07203929  1  0.030905  0  -0.011686  0.003715  0  4.038105  0
C  C137  1  0.87371692  0.95945534  0.03361185  1  0.390775  0  0.071967  0.124104  0  4.077528  0
C  C138  1  0.93840374  0.14576708  0.84928821  1  0.029458  0  -0.096957  -0.156481  0  3.966655  0
C  C139  1  0.93680226  0.07243671  0.92339977  1  0.008577  0  -0.012562  0.004445  0  4.03967  0
C  C140  1  0.87125605  0.03452167  0.96320121  1  0.379133  0  0.070082  0.120061  0  4.077998  0
C  C141  1  0.06734348  0.14445784  0.84721984  1  0.029608  0  -0.094566  -0.151738  0  3.959577  0
C  C142  1  0.06838747  0.07142074  0.92157396  1  0.037689  0  -0.011285  0.003983  0  4.038352  0
C  C143  1  0.13321551  0.03301612  0.96006996  1  0.38897  0  0.071541  0.1235  0  4.077134  0
C  C144  1  0.00410991  0.81101348  0.18183793  1  0.062889  0  -0.02441  -0.035551  0  4.026728  0
C  C145  1  0.00280611  0.95978746  0.03478712  1  0.036137  0  -0.008882  -0.010559  0  3.983053  0
C  C146  1  0.00306699  0.18122106  0.81156881  1  -0.142059  0  -0.024704  -0.035121  0  4.026311  0
C  C147  1  0.00261913  0.03418944  0.96040023  1  -0.039374  0  -0.00923  -0.011753  0  3.983523  0
C  C148  1  0.31604295  0.49796511  0.49701896  1  -0.025655  0  -0.022384  -0.023366  0  4.028664  0
C  C149  1  0.68896066  0.49643857  0.49849491  1  -0.013495  0  -0.023431  -0.024424  0  4.028576  0
C  C150  1  0.33566277  0.45755047  0.57252179  1  -0.038783  0  -0.100153  -0.214418  0  3.946044  0
C  C151  1  0.41017250  0.45517105  0.57301346  1  0.344202  0  0.092984  0.253086  0  4.084876  0
C  C152  1  0.63429349  0.57192545  0.45802572  1  -0.060852  0  -0.099347  -0.21276  0  3.945653  0
C  C153  1  0.56162998  0.57242743  0.45570795  1  0.387301  0  0.092035  0.251859  0  4.086114  0
C  C154  1  0.67397310  0.41836613  0.53487063  1  -0.025039  0  -0.10629  -0.13811  0  4.037266  0
C  C155  1  0.60375789  0.41793084  0.53014007  1  -0.110383  0  -0.097361  -0.130189  0  4.045251  0
C  C156  1  0.37276076  0.53425978  0.41893590  1  0.049783  0  -0.106669  -0.139371  0  4.037697  0
C  C157  1  0.44814816  0.52950968  0.41852038  1  -0.045949  0  -0.097504  -0.128945  0  4.043163  0
C  C158  1  0.46808125  0.49191991  0.49420699  1  -0.004497  0  -0.019977  -0.032872  0  3.965304  0
C  C159  1  0.54575030  0.49362429  0.49250688  1  -0.014485  0  -0.020056  -0.033143  0  3.966617  0
N  N160  1  0.42396591  0.65220517  0.00638933  1  -1.23346  0  -0.601974  -0.628694  0  3.336855  0
N  N161  1  0.49785845  0.43219801  0.91827627  1  -1.22261  0  -0.605814  -0.631622  0  3.35057  0
N  N162  1  0.15137364  0.91818340  0.43230274  1  -1.234911  0  -0.605919  -0.631304  0  3.351661  0
N  N163  1  0.91713655  0.00614255  0.65236387  1  -1.249328  0  -0.601691  -0.628509  0  3.337404  0
N  N164  1  0.41811477  0.99743788  0.43217361  1  -1.230042  0  -0.604345  -0.627629  0  3.345178  0
N  N165  1  0.49801168  0.91641007  0.65270983  1  -1.246025  0  -0.603206  -0.629368  0  3.350221  0
N  N166  1  0.93326592  0.65243841  0.91653314  1  -1.224983  0  -0.603438  -0.629758  0  3.349296  0
N  N167  1  0.15260920  0.43199752  0.99768328  1  -1.271608  0  -0.604683  -0.628793  0  3.345546  0
N  N168  1  0.42629862  0.41580113  0.65005118  1  -1.226416  0  -0.605526  -0.631659  0  3.338334  0
N  N169  1  0.50781661  0.64947704  0.41636055  1  -1.211411  0  -0.604549  -0.630993  0  3.337896  0
N  N170  1  0.19779202  0.06815197  0.92547135  1  -1.202971  0  -0.610565  -0.613035  0  3.31397  0
N  N171  1  0.19522793  0.92881621  0.07054042  1  -1.191503  0  -0.611608  -0.613656  0  3.307286  0
N  N172  1  0.80546444  0.06988343  0.92936954  1  -1.193671  0  -0.611585  -0.614002  0  3.30709  0
N  N173  1  0.80863012  0.92482785  0.06872774  1  -1.188432  0  -0.61096  -0.614133  0  3.312661  0
O  O174  1  0.79208730  0.44346935  0.70183907  1  -1.176961  0  -0.357162  -0.623665  0  2.270955  0
O  O175  1  0.06251454  0.70136652  0.44397685  1  -1.177361  0  -0.357452  -0.623759  0  2.270116  0
O  O176  1  0.20182237  0.56144303  0.29167122  1  -1.186086  0  -0.357216  -0.621509  0  2.285518  0
O  O177  1  0.94509333  0.29115954  0.56190410  1  -1.188619  0  -0.357216  -0.621649  0  2.286015  0
O  O178  1  0.06265268  0.29044197  0.70208808  1  -1.182281  0  -0.356523  -0.620449  0  2.283226  0
O  O179  1  0.79154865  0.56187509  0.44539888  1  -1.18742  0  -0.356786  -0.62134  0  2.277516  0
O  O180  1  0.94484450  0.70149394  0.29097921  1  -1.181975  0  -0.356057  -0.619913  0  2.28272  0
O  O181  1  0.20105840  0.44493024  0.56247764  1  -1.189149  0  -0.356794  -0.621183  0  2.277511  0
O  O182  1  0.94543863  0.56176617  0.70097180  1  -1.186137  0  -0.356593  -0.620934  0  2.277354  0
O  O183  1  0.20095975  0.29044753  0.44573128  1  -1.184074  0  -0.356535  -0.621911  0  2.276728  0
O  O184  1  0.06291102  0.44528075  0.29095301  1  -1.188199  0  -0.356767  -0.622219  0  2.276824  0
O  O185  1  0.79178990  0.70043528  0.56228724  1  -1.188515  0  -0.356262  -0.620465  0  2.277441  0
O  O186  1  0.20575907  0.29448068  0.56052708  1  -1.173954  0  -0.358491  -0.621503  0  2.272639  0
O  O187  1  0.93924789  0.56003311  0.29499356  1  -1.190164  0  -0.358405  -0.621224  0  2.272148  0
O  O188  1  0.79526185  0.70539421  0.43884742  1  -1.181545  0  -0.358174  -0.621591  0  2.271621  0
O  O189  1  0.06045621  0.43831813  0.70593038  1  -1.181559  0  -0.358142  -0.621116  0  2.272113  0
O  O190  1  0.94186019  0.29187111  0.70385334  1  -1.189296  0  -0.358978  -0.622691  0  2.280627  0
O  O191  1  0.20550531  0.56032311  0.43894566  1  -1.182821  0  -0.358094  -0.620722  0  2.274878  0
O  O192  1  0.06237443  0.70332718  0.29247567  1  -1.181588  0  -0.359191  -0.622853  0  2.282158  0
O  O193  1  0.79522727  0.43837607  0.56083598  1  -1.181676  0  -0.358168  -0.620891  0  2.275361  0
O  O194  1  0.06039148  0.29469142  0.43867722  1  -1.193057  0  -0.357967  -0.620757  0  2.271305  0
O  O195  1  0.79568372  0.55939665  0.70501174  1  -1.17431  0  -0.358237  -0.620363  0  2.278129  0
O  O196  1  0.93982962  0.70457754  0.55991037  1  -1.185241  0  -0.358297  -0.620948  0  2.2767  0
O  O197  1  0.20623442  0.43822925  0.29515097  1  -1.176411  0  -0.358133  -0.620779  0  2.271022  0
O  O198  1  0.94803057  0.44736579  0.44780593  1  -1.225655  0  -0.694705  -1.065204  0  2.367753  0
O  O199  1  0.15678328  0.44730933  0.44788147  1  -1.217565  0  -0.694788  -1.065017  0  2.36795  0
O  O200  1  0.94832797  0.65628343  0.44708778  1  -1.224445  0  -0.694575  -1.065757  0  2.366875  0
O  O201  1  0.94826867  0.44653757  0.65680780  1  -1.232437  0  -0.695454  -1.067131  0  2.364909  0
O  O202  1  0.03874010  0.53788434  0.53830556  1  -1.200716  0  -0.79179  -1.148769  0  2.130166  0
O  O203  1  0.88506071  0.53775681  0.53840761  1  -1.201998  0  -0.791794  -1.148299  0  2.129306  0
O  O204  1  0.03872518  0.53804281  0.38432455  1  -1.195747  0  -0.791266  -1.147919  0  2.128457  0
O  O205  1  0.03891677  0.38380482  0.53854109  1  -1.191845  0  -0.791296  -1.147735  0  2.127903  0
