# generated using pymatgen
data_CdH18C30N2(Cl2O)2
_symmetry_space_group_name_H-M   'P 1'
_cell_length_a   10.10054452
_cell_length_b   18.92447868
_cell_length_c   21.01391766
_cell_angle_alpha   66.89713029
_cell_angle_beta   86.14467429
_cell_angle_gamma   84.76708197
_symmetry_Int_Tables_number   1
_chemical_formula_structural   CdH18C30N2(Cl2O)2
_chemical_formula_sum   'Cd3 H54 C90 N6 Cl12 O6'
_cell_volume   3677.05404441
_cell_formula_units_Z   3
loop_
 _symmetry_equiv_pos_site_id
 _symmetry_equiv_pos_as_xyz
  1  'x, y, z'
loop_
 _atom_site_type_symbol
 _atom_site_label
 _atom_site_symmetry_multiplicity
 _atom_site_fract_x
 _atom_site_fract_y
 _atom_site_fract_z
 _atom_site_occupancy
 _atom_site_pbe_bader_charge
 _atom_site_pbe_bader_spin_density
 _atom_site_pbe_cm5_charge
 _atom_site_pbe_ddec_charge
 _atom_site_pbe_ddec_spin_density
 _atom_site_pbe_ddec_sum_bond_order
 _atom_site_pbe_magmom
Cd  Cd0  1  0.99690938  0.16375309  0.09283574  1  1.141849  0  0.583556  0.748131  0  2.449642  0
Cd  Cd1  1  0.71898146  0.09937077  0.00889375  1  1.14229  0  0.582474  0.747468  0  2.440154  0
Cd  Cd2  1  0.35844100  0.12801350  0.05166918  1  1.141402  0  0.586823  0.736407  0  2.533805  0
H  H3  1  0.45073044  0.24073582  0.11505993  1  0.124591  0  0.109278  0.085965  0  1.014438  0
H  H4  1  0.52620031  0.24504513  0.22458377  1  0.078358  0  0.106279  0.114429  0  0.992253  0
H  H5  1  0.53415909  0.99637685  0.31363352  1  0.077682  0  0.113191  0.124529  0  0.978348  0
H  H6  1  0.46662948  0.00309852  0.19874604  1  0.131912  0  0.117305  0.09753  0  0.978621  0
H  H7  1  0.75902661  0.03034220  0.31595865  1  0.11886  0  0.107881  0.129551  0  1.009973  0
H  H8  1  0.96536950  0.96150922  0.50561434  1  0.10999  0  0.106734  0.120834  0  0.984865  0
H  H9  1  0.80126472  0.04086406  0.54667694  1  0.068591  0  0.097736  0.10051  0  1.03138  0
H  H10  1  0.39819335  0.20671520  0.33720345  1  0.080127  0  0.110913  0.132124  0  0.992186  0
H  H11  1  0.65653676  0.26687459  0.44226409  1  0.069571  0  0.104485  0.111598  0  1.001514  0
H  H12  1  0.69226425  0.39016543  0.45054952  1  0.095885  0  0.102095  0.115814  0  1.009453  0
H  H13  1  0.66615919  0.28268845  0.67280190  1  0.084926  0  0.104771  0.125183  0  1.016836  0
H  H14  1  0.57895430  0.01953030  0.71969512  1  0.058609  0  0.109608  0.129082  0  0.991817  0
H  H15  1  0.51914559  0.05939205  0.91708787  1  0.122211  0  0.097759  0.071649  0  1.066332  0
H  H16  1  0.46973974  0.07457437  0.79682532  1  0.087049  0  0.098003  0.102328  0  1.038668  0
H  H17  1  0.83457289  0.18902737  0.72754876  1  0.070607  0  0.107162  0.117764  0  0.993553  0
H  H18  1  0.86514067  0.17090587  0.85055221  1  0.11446  0  0.105804  0.088863  0  1.017037  0
H  H19  1  0.23667641  0.24717542  0.90610739  1  0.10692  0  0.118981  0.100514  0  0.976618  0
H  H20  1  0.18066313  0.25097028  0.79019168  1  0.06431  0  0.111545  0.121239  0  0.980911  0
H  H21  1  0.23290305  0.00231623  0.87623300  1  0.057994  0  0.105454  0.113035  0  0.999084  0
H  H22  1  0.28962963  0.01009631  0.98743101  1  0.081502  0  0.104291  0.076661  0  1.038832  0
H  H23  1  0.01486124  0.02778196  0.84498913  1  0.095423  0  0.107462  0.12632  0  1.014932  0
H  H24  1  0.84375686  0.96302875  0.69564401  1  0.095997  0  0.108797  0.123657  0  0.984167  0
H  H25  1  0.98133524  0.05270343  0.60174956  1  0.078482  0  0.10206  0.104854  0  1.031359  0
H  H26  1  0.33333516  0.21007944  0.70993698  1  0.08139  0  0.108487  0.124081  0  1.004669  0
H  H27  1  0.05762392  0.27751773  0.56329325  1  0.069239  0  0.100105  0.104273  0  1.007318  0
H  H28  1  0.95854954  0.39851925  0.47736692  1  0.114696  0  0.103064  0.115212  0  0.999398  0
H  H29  1  0.99092694  0.30045269  0.32341449  1  0.080075  0  0.100635  0.115514  0  1.025964  0
H  H30  1  0.19517912  0.04447700  0.44094601  1  0.09142  0  0.111267  0.130914  0  0.986  0
H  H31  1  0.21443466  0.11185449  0.20791767  1  0.138741  0  0.100386  0.077456  0  1.065212  0
H  H32  1  0.26615654  0.11189006  0.32261253  1  0.059254  0  0.100507  0.104312  0  1.044982  0
H  H33  1  0.85959908  0.19849708  0.33763369  1  0.082583  0  0.105667  0.115644  0  1.001976  0
H  H34  1  0.82576792  0.19384358  0.22262579  1  0.11914  0  0.111221  0.082584  0  1.004781  0
H  H35  1  0.71003344  0.24244790  0.04626567  1  0.138601  0  0.09231  0.074677  0  1.082537  0
H  H36  1  0.55933145  0.35875079  0.02840148  1  0.085974  0  0.110626  0.126744  0  0.990288  0
H  H37  1  0.86842727  0.44839379  0.10228059  1  0.071536  0  0.103182  0.112943  0  1.015416  0
H  H38  1  0.01022046  0.32787696  0.11426786  1  0.093956  0  0.108974  0.08635  0  0.995588  0
H  H39  1  0.63347118  0.46719499  0.16294470  1  0.055857  0  0.097642  0.106709  0  1.027209  0
H  H40  1  0.65245588  0.46967042  0.93205078  1  0.101634  0  0.106286  0.125347  0  1.00789  0
H  H41  1  0.36513739  0.65195339  0.82263250  1  0.082837  0  0.105188  0.117558  0  0.985993  0
H  H42  1  0.31127807  0.67853329  0.92823600  1  0.058158  0  0.100502  0.100804  0  1.012647  0
H  H43  1  0.00824669  0.03116239  0.04882609  1  0.126231  0  0.089544  0.070919  0  1.092831  0
H  H44  1  0.16394390  0.91633157  0.07264600  1  0.083112  0  0.105121  0.121103  0  1.007528  0
H  H45  1  0.86304796  0.81401047  0.00584758  1  0.064556  0  0.105624  0.116333  0  0.999227  0
H  H46  1  0.71263267  0.93106262  0.99340323  1  0.09485  0  0.10099  0.07583  0  1.017918  0
H  H47  1  0.27905979  0.86374035  0.99468905  1  0.043158  0  0.101601  0.110901  0  1.024442  0
H  H48  1  0.22811887  0.52670697  0.11421817  1  0.073324  0  0.104052  0.107356  0  1.003431  0
H  H49  1  0.00829894  0.49471885  0.17392326  1  0.074341  0  0.098871  0.108896  0  1.011707  0
H  H50  1  0.89575502  0.73513299  0.12056018  1  0.090425  0  0.105682  0.123034  0  1.015314  0
H  H51  1  0.39709505  0.21800427  0.49736702  1  0.656828  0  0.304688  0.342702  0  0.974844  0
H  H52  1  0.52394352  0.00892251  0.56151385  1  0.627479  0  0.325628  0.36126  0  0.89653  0
H  H53  1  0.40064869  0.24742584  0.59836768  1  0.622066  0  0.330173  0.361736  0  0.894288  0
H  H54  1  0.27277076  0.02612606  0.60658251  1  0.613633  0  0.322015  0.353481  0  0.907075  0
H  H55  1  0.52217078  0.54770276  0.20621456  1  0.608478  0  0.328279  0.362967  0  0.882855  0
H  H56  1  0.48486194  0.81633813  0.98288293  1  0.575148  0  0.335057  0.363547  0  0.876764  0
C  C57  1  0.47266177  0.18810939  0.16024937  1  0.482816  0  0.048407  0.105386  0  3.963129  0
C  C58  1  0.51317830  0.18996649  0.22142523  1  -0.000242  0  -0.0863  -0.180532  0  3.947682  0
C  C59  1  0.53505054  0.12073187  0.27909712  1  -0.082396  0  0.009518  0.107404  0  3.994267  0
C  C60  1  0.51944924  0.05196208  0.27072188  1  -0.032336  0  -0.07993  -0.169803  0  3.92154  0
C  C61  1  0.48034205  0.05517410  0.20730214  1  0.527186  0  0.054198  0.116918  0  3.936658  0
C  C62  1  0.56198321  0.12250257  0.34686159  1  0.010062  0  -0.002944  0.033382  0  3.987633  0
C  C63  1  0.66724521  0.07601052  0.39006588  1  -0.005941  0  -0.01114  0.032121  0  3.979301  0
C  C64  1  0.76375992  0.03088910  0.36740278  1  0.016847  0  -0.095919  -0.202349  0  3.965054  0
C  C65  1  0.86840356  0.99073685  0.40867584  1  0.014759  0  0.006832  0.148337  0  4.076545  0
C  C66  1  0.88137284  0.99320148  0.47419808  1  -0.035085  0  -0.095881  -0.143892  0  4.01537  0
C  C67  1  0.78933643  0.03733706  0.49687364  1  -0.062699  0  -0.09889  -0.124863  0  3.997222  0
C  C68  1  0.68033874  0.08023542  0.45627260  1  -0.024191  0  -0.012805  0.035448  0  4.002668  0
C  C69  1  0.58913632  0.12902201  0.47912480  1  -0.032583  0  -0.039442  -0.143463  0  4.045661  0
C  C70  1  0.49027334  0.17451243  0.43447058  1  0.541882  0  0.081015  0.27845  0  4.108433  0
C  C71  1  0.47907005  0.17112955  0.36904879  1  -0.058441  0  -0.099504  -0.240942  0  3.965615  0
C  C72  1  0.60216620  0.13324088  0.54752127  1  0.014381  0  -0.032408  -0.115767  0  4.040448  0
C  C73  1  0.63634640  0.20240288  0.55291607  1  0.00995  0  -0.011864  0.034724  0  3.997328  0
C  C74  1  0.65767544  0.26988119  0.49291919  1  -0.032492  0  -0.088989  -0.102624  0  3.964848  0
C  C75  1  0.67774979  0.33883560  0.49718588  1  -0.033604  0  -0.095024  -0.140219  0  4.007605  0
C  C76  1  0.67938083  0.34265702  0.56283589  1  0.024575  0  0.00452  0.147033  0  4.089774  0
C  C77  1  0.66403031  0.27812137  0.62285582  1  -0.001361  0  -0.107609  -0.226053  0  3.996238  0
C  C78  1  0.64432261  0.20620915  0.61969330  1  -0.031058  0  -0.016486  0.01694  0  4.001347  0
C  C79  1  0.62726429  0.13774392  0.68083262  1  -0.004432  0  -0.006979  0.030584  0  3.991196  0
C  C80  1  0.59217049  0.07217412  0.67399501  1  -0.016503  0  -0.097159  -0.232422  0  3.967984  0
C  C81  1  0.57682068  0.07014704  0.60849533  1  0.48  0  0.075191  0.259651  0  4.109197  0
C  C82  1  0.58559380  0.08807642  0.87300571  1  0.500095  0  0.038918  0.095432  0  3.963159  0
C  C83  1  0.55929817  0.09648240  0.80624816  1  -0.04796  0  -0.093573  -0.188117  0  3.967353  0
C  C84  1  0.64807963  0.13358222  0.75129216  1  -0.022615  0  0.00532  0.104702  0  3.990441  0
C  C85  1  0.75995461  0.16147651  0.76747422  1  -0.045  0  -0.085493  -0.1728  0  3.940718  0
C  C86  1  0.77884885  0.15051215  0.83588062  1  0.515608  0  0.047409  0.10259  0  3.937395  0
C  C87  1  0.23541078  0.19453575  0.89663505  1  0.542991  0  0.058542  0.125315  0  3.934512  0
C  C88  1  0.20454945  0.19603398  0.83253486  1  -0.011656  0  -0.081944  -0.171779  0  3.923312  0
C  C89  1  0.20394287  0.12670789  0.82301422  1  -0.006694  0  0.008201  0.107689  0  3.994029  0
C  C90  1  0.23065229  0.05798952  0.88049233  1  -0.077805  0  -0.089284  -0.186104  0  3.955096  0
C  C91  1  0.26207763  0.06176406  0.94241626  1  0.58001  0  0.045664  0.098794  0  3.976483  0
C  C92  1  0.18599394  0.12795366  0.75326071  1  -0.025784  0  -0.001574  0.043557  0  3.975003  0
C  C93  1  0.09560090  0.08179232  0.73957922  1  -0.004403  0  -0.008334  0.036626  0  3.971358  0
C  C94  1  0.01252726  0.03179597  0.79199520  1  0.05368  0  -0.097053  -0.207693  0  3.975959  0
C  C95  1  0.92558550  0.98977432  0.77567366  1  -0.018266  0  0.009683  0.151697  0  4.07505  0
C  C96  1  0.91432580  0.99634671  0.70699734  1  -0.030821  0  -0.093168  -0.141431  0  4.010068  0
C  C97  1  0.99140604  0.04593896  0.65514521  1  -0.018823  0  -0.092343  -0.115041  0  3.985858  0
C  C98  1  0.08475554  0.08925479  0.66925686  1  -0.004185  0  -0.008283  0.036108  0  3.989639  0
C  C99  1  0.16471335  0.13994493  0.61427337  1  0.027989  0  -0.026412  -0.104067  0  4.020433  0
C  C100  1  0.25363052  0.18154252  0.63075426  1  0.389471  0  0.078187  0.261872  0  4.097265  0
C  C101  1  0.26246925  0.17624512  0.69912603  1  -0.021917  0  -0.103197  -0.267061  0  4.012035  0
C  C102  1  0.14745146  0.14895385  0.54185663  1  0.07587  0  -0.030765  -0.110963  0  4.02053  0
C  C103  1  0.08322866  0.21755656  0.49347211  1  0.028038  0  -0.003011  0.059888  0  3.96706  0
C  C104  1  0.04319912  0.28174382  0.51097631  1  -0.047805  0  -0.091094  -0.10419  0  3.964308  0
C  C105  1  0.98799621  0.34955173  0.46330524  1  -0.042772  0  -0.096284  -0.142526  0  4.012989  0
C  C106  1  0.96982309  0.35524256  0.39545685  1  0.042408  0  0.003667  0.148813  0  4.078557  0
C  C107  1  0.00436772  0.29394675  0.37641064  1  -0.018531  0  -0.101547  -0.205602  0  3.975383  0
C  C108  1  0.05972623  0.22331633  0.42489157  1  0.024395  0  -0.004603  0.044846  0  3.962231  0
C  C109  1  0.09750429  0.15841239  0.40694047  1  0.013143  0  -0.000894  0.038928  0  3.974647  0
C  C110  1  0.16459799  0.09411745  0.45392033  1  -0.030476  0  -0.094277  -0.228589  0  3.961327  0
C  C111  1  0.19067185  0.08955702  0.52050587  1  0.42533  0  0.076537  0.261644  0  4.105094  0
C  C112  1  0.13970996  0.13152499  0.23826854  1  0.489951  0  0.04293  0.106218  0  3.951901  0
C  C113  1  0.16729848  0.13151633  0.30212436  1  0.013297  0  -0.089604  -0.181818  0  3.947044  0
C  C114  1  0.06839983  0.15796328  0.33915455  1  -0.12158  0  0.010189  0.114313  0  3.981512  0
C  C115  1  0.94254760  0.18081627  0.30999433  1  0.045796  0  -0.08792  -0.182059  0  3.956685  0
C  C116  1  0.92284802  0.17786691  0.24620879  1  0.434704  0  0.043351  0.093524  0  3.970607  0
C  C117  1  0.74225736  0.28923517  0.05803478  1  0.520611  0  0.041875  0.104935  0  3.94934  0
C  C118  1  0.65793772  0.35464097  0.04826342  1  -0.042501  0  -0.082675  -0.176363  0  3.923813  0
C  C119  1  0.70068361  0.41373584  0.06469604  1  -0.048173  0  0.011462  0.118813  0  3.984431  0
C  C120  1  0.82939089  0.40363084  0.08987823  1  -0.002831  0  -0.091008  -0.187311  0  3.948476  0
C  C121  1  0.90826877  0.33690043  0.09687892  1  0.461161  0  0.041472  0.094582  0  3.977219  0
C  C122  1  0.61108204  0.48261128  0.05750837  1  0.004324  0  -0.004678  0.043993  0  3.984757  0
C  C123  1  0.58446631  0.50162484  0.11451311  1  -0.031565  0  -0.110089  -0.277169  0  4.038686  0
C  C124  1  0.49102860  0.56271578  0.11241781  1  0.434156  0  0.076211  0.263271  0  4.109472  0
C  C125  1  0.42241938  0.60587507  0.05271889  1  0.075481  0  -0.017745  -0.069485  0  3.95224  0
C  C126  1  0.45117893  0.58929751  0.99241213  1  -0.07864  0  -0.002645  0.047708  0  3.976122  0
C  C127  1  0.54705836  0.52772783  0.99393595  1  0.056528  0  -0.00671  0.04043  0  3.965004  0
C  C128  1  0.57751672  0.51466647  0.93234259  1  -0.011136  0  -0.09679  -0.199579  0  3.960183  0
C  C129  1  0.51304089  0.55914728  0.87236719  1  0.050206  0  0.006204  0.155317  0  4.078008  0
C  C130  1  0.41546882  0.61826282  0.87061001  1  -0.067007  0  -0.097639  -0.148739  0  4.018201  0
C  C131  1  0.38598839  0.63266427  0.92953581  1  0.056593  0  -0.090531  -0.110576  0  3.992244  0
C  C132  1  0.97871117  0.98167904  0.04055103  1  0.503826  0  0.040526  0.110565  0  3.947939  0
C  C133  1  0.06687786  0.91744182  0.05242574  1  -0.065086  0  -0.086366  -0.17358  0  3.922604  0
C  C134  1  0.02848967  0.85485552  0.03994919  1  0.036057  0  0.009082  0.115316  0  3.981568  0
C  C135  1  0.89838243  0.86004936  0.01765090  1  -0.033399  0  -0.09169  -0.191203  0  3.973077  0
C  C136  1  0.81516136  0.92564341  0.00902440  1  0.479841  0  0.036148  0.093241  0  3.987139  0
C  C137  1  0.32050078  0.66784517  0.05235274  1  0.052366  0  -0.012843  -0.058932  0  3.940956  0
C  C138  1  0.35067213  0.74451896  0.02351043  1  0.439152  0  0.079976  0.266382  0  4.100316  0
C  C139  1  0.25318087  0.80399320  0.02036092  1  0.030465  0  -0.104208  -0.268528  0  4.015576  0
C  C140  1  0.12524953  0.78885632  0.04752897  1  -0.004028  0  -0.002527  0.046264  0  3.982709  0
C  C141  1  0.09240973  0.71044393  0.08167511  1  0.010294  0  -0.00493  0.043331  0  3.963217  0
C  C142  1  0.19049922  0.65012464  0.08235943  1  0.040909  0  -4.4e-05  0.049033  0  3.965318  0
C  C143  1  0.15522483  0.57259860  0.11488598  1  0.009524  0  -0.086607  -0.101246  0  3.971331  0
C  C144  1  0.03301342  0.55442905  0.14793244  1  -0.060743  0  -0.100903  -0.156337  0  4.03022  0
C  C145  1  0.94070094  0.61436543  0.14967842  1  0.009676  0  0.005759  0.152369  0  4.073937  0
C  C146  1  0.96846002  0.69046745  0.11735557  1  -0.021853  0  -0.097334  -0.201661  0  3.970393  0
N  N147  1  0.45497293  0.12203179  0.15358223  1  -1.234813  0  -0.329522  -0.229487  0  3.531907  0
N  N148  1  0.69385364  0.11403063  0.88797125  1  -1.232896  0  -0.318926  -0.221088  0  3.469086  0
N  N149  1  0.26660645  0.12852568  0.95008602  1  -1.234715  0  -0.325195  -0.221415  0  3.512773  0
N  N150  1  0.01994213  0.15491301  0.21025432  1  -1.220875  0  -0.323938  -0.227613  0  3.487523  0
N  N151  1  0.86528635  0.28033019  0.08177644  1  -1.23799  0  -0.328113  -0.232563  0  3.505469  0
N  N152  1  0.85479786  0.98597744  0.01942137  1  -1.236084  0  -0.330953  -0.226488  0  3.505261  0
Cl  Cl153  1  0.54042132  0.21672205  0.97453056  1  -0.634909  0  -0.326418  -0.489144  0  1.236675  0
Cl  Cl154  1  0.92900420  0.18292549  0.96640405  1  -0.648968  0  -0.326444  -0.503905  0  1.228655  0
Cl  Cl155  1  0.82356908  0.92916635  0.83949717  1  -0.22367  0  -0.006192  -0.085798  0  1.491216  0
Cl  Cl156  1  0.78643767  0.08341019  0.13387612  1  -0.640228  0  -0.330826  -0.495698  0  1.230382  0
Cl  Cl157  1  0.98966196  0.93935839  0.37885030  1  -0.204098  0  -0.017767  -0.086483  0  1.412979  0
Cl  Cl158  1  0.17393241  0.04110241  0.12806793  1  -0.640239  0  -0.311978  -0.490449  0  1.256643  0
Cl  Cl159  1  0.70391784  0.42990625  0.56746305  1  -0.213072  0  -0.024927  -0.096553  0  1.396411  0
Cl  Cl160  1  0.51816996  0.00528449  0.05320101  1  -0.66875  0  -0.341909  -0.532187  0  1.173551  0
Cl  Cl161  1  0.90089648  0.44081408  0.33529921  1  -0.228379  0  -0.030251  -0.122664  0  1.537564  0
Cl  Cl162  1  0.20254538  0.24956839  0.04927905  1  -0.656012  0  -0.347758  -0.521157  0  1.179763  0
Cl  Cl163  1  0.55148533  0.54295288  0.79726530  1  -0.234603  0  -0.045815  -0.122613  0  1.375589  0
Cl  Cl164  1  0.78907265  0.59235927  0.19464070  1  -0.243913  0  -0.023532  -0.107706  0  1.53726  0
O  O165  1  0.39980258  0.22425544  0.44845288  1  -1.176863  0  -0.34941  -0.436648  0  2.354557  0
O  O166  1  0.53734542  0.00278543  0.60920978  1  -1.141292  0  -0.352463  -0.434266  0  2.273383  0
O  O167  1  0.33207107  0.22968027  0.57860466  1  -1.151248  0  -0.331849  -0.433115  0  2.376736  0
O  O168  1  0.25808088  0.02303988  0.56222426  1  -1.144204  0  -0.356244  -0.44235  0  2.280571  0
O  O169  1  0.46246812  0.57963282  0.16975884  1  -1.118584  0  -0.351899  -0.440296  0  2.277935  0
O  O170  1  0.47697784  0.76132481  0.99682593  1  -1.090893  0  -0.350592  -0.438542  0  2.259461  0
