# generated using pymatgen
data_Al6H63C90(NO4)7
_symmetry_space_group_name_H-M   'P 1'
_cell_length_a   13.15410162
_cell_length_b   13.15775910
_cell_length_c   27.60669304
_cell_angle_alpha   89.89123133
_cell_angle_beta   89.57357823
_cell_angle_gamma   60.63108203
_symmetry_Int_Tables_number   1
_chemical_formula_structural   Al6H63C90(NO4)7
_chemical_formula_sum   'Al6 H63 C90 N7 O28'
_cell_volume   4163.91661899
_cell_formula_units_Z   1
loop_
 _symmetry_equiv_pos_site_id
 _symmetry_equiv_pos_as_xyz
  1  'x, y, z'
loop_
 _atom_site_type_symbol
 _atom_site_label
 _atom_site_symmetry_multiplicity
 _atom_site_fract_x
 _atom_site_fract_y
 _atom_site_fract_z
 _atom_site_occupancy
 _atom_site_pbe_bader_charge
 _atom_site_pbe_bader_spin_density
 _atom_site_pbe_cm5_charge
 _atom_site_pbe_ddec_charge
 _atom_site_pbe_ddec_spin_density
 _atom_site_pbe_ddec_sum_bond_order
 _atom_site_pbe_magmom
Al  Al0  1  0.41807437  0.17680176  0.49855658  1  2.492702  0  0.398653  1.687775  0  2.553718  0
Al  Al1  1  0.41848034  0.93481585  0.49877173  1  2.471731  0  0.501505  1.65532  0  2.515159  0
Al  Al2  1  0.65014969  0.92602631  0.49960002  1  2.477041  0  0.503988  1.66278  0  2.508147  0
Al  Al3  1  0.91199017  0.17305600  0.98640866  1  2.495418  0  0.393279  1.687778  0  2.553874  0
Al  Al4  1  0.67273397  0.41508222  0.98580345  1  2.477786  0  0.501294  1.659106  0  2.516294  0
Al  Al5  1  0.89580733  0.42401250  0.98354792  1  2.478409  0  0.503127  1.66024  0  2.508062  0
H  H6  1  0.46477590  0.68853039  0.21397517  1  0.067819  0  0.102979  0.092973  0  0.996452  0
H  H7  1  0.81268920  0.54844858  0.69363241  1  0.080322  0  0.10108  0.104481  0  1.025602  0
H  H8  1  0.49668812  0.86733296  0.72877565  1  0.098147  0  0.109962  0.118153  0  0.982624  0
H  H9  1  0.46249794  0.91301775  0.64144848  1  0.092388  0  0.107776  0.107437  0  1.022871  0
H  H10  1  0.71733590  0.92423478  0.64116798  1  0.078197  0  0.104686  0.106612  0  1.012111  0
H  H11  1  0.49503706  0.31037287  0.77702762  1  0.057329  0  0.096913  0.093504  0  1.011171  0
H  H12  1  0.50784631  0.36047577  0.86326292  1  0.069309  0  0.102257  0.107031  0  1.01467  0
H  H13  1  0.47419950  0.87690494  0.25979972  1  0.048328  0  0.101061  0.092035  0  1.008686  0
H  H14  1  0.73206448  0.95699029  0.72864946  1  0.062368  0  0.101794  0.10045  0  1.015365  0
H  H15  1  0.85584630  0.07055999  0.86979147  1  0.096208  0  0.114237  0.125367  0  1.002461  0
H  H16  1  0.57591777  0.32666872  0.70245540  1  0.086002  0  0.10005  0.097878  0  1.007403  0
H  H17  1  0.47972724  0.23981341  0.21797852  1  0.079242  0  0.097708  0.102563  0  1.018396  0
H  H18  1  0.54374129  0.29374490  0.61614525  1  0.090761  0  0.115535  0.122189  0  0.976663  0
H  H19  1  0.00311433  0.13141390  0.75596256  1  0.086731  0  0.097067  0.09726  0  1.031493  0
H  H20  1  0.95946627  0.15097155  0.84397895  1  0.099087  0  0.1042  0.103233  0  1.042935  0
H  H21  1  0.19610439  0.31550695  0.77419027  1  0.041361  0  0.09951  0.09792  0  1.007665  0
H  H22  1  0.66421706  0.83849135  0.19684225  1  0.06346  0  0.105483  0.095729  0  0.9919  0
H  H23  1  0.13948405  0.34595025  0.86146150  1  0.090543  0  0.10727  0.109713  0  0.99178  0
H  H24  1  0.18663845  0.01951103  0.71483741  1  0.042865  0  0.098376  0.107986  0  1.014053  0
H  H25  1  0.82113364  0.68698686  0.26690734  1  0.082605  0  0.106794  0.105273  0  0.97754  0
H  H26  1  0.81643421  0.99406414  0.20686520  1  0.067795  0  0.104512  0.103484  0  0.979846  0
H  H27  1  0.87543755  0.11262120  0.27799358  1  0.090604  0  0.097754  0.09019  0  1.025887  0
H  H28  1  0.72870630  0.32751006  0.23054011  1  0.052009  0  0.096668  0.088524  0  1.026886  0
H  H29  1  0.46762144  0.45794961  0.27053826  1  0.031868  0  0.091055  0.123942  0  1.002133  0
H  H30  1  0.44846444  0.37193003  0.31578324  1  0.047115  0  0.098434  0.138234  0  0.984472  0
H  H31  1  0.55717421  0.41296139  0.32326315  1  0.036693  0  0.094814  0.129875  0  0.998274  0
H  H32  1  0.26301401  0.37147106  0.23363475  1  0.032946  0  0.091812  0.126169  0  1.00238  0
H  H33  1  0.29031194  0.31119849  0.17393404  1  0.042927  0  0.096361  0.133134  0  0.993366  0
H  H34  1  0.14742359  0.41890154  0.19105606  1  0.031813  0  0.095449  0.132164  0  0.995504  0
H  H35  1  0.35261462  0.88091662  0.19767450  1  0.036721  0  0.08483  0.111749  0  1.062001  0
H  H36  1  0.24357731  0.95004602  0.15285104  1  0.073246  0  0.101479  0.143054  0  0.979956  0
H  H37  1  0.36819702  0.96845981  0.15214115  1  0.033629  0  0.097201  0.138154  0  0.982488  0
H  H38  1  0.09993475  0.95748746  0.24431190  1  0.410086  0  0.297333  0.287664  0  0.952154  0
H  H39  1  0.06543803  0.33906048  0.28526352  1  0.067998  0  0.103559  0.097761  0  0.987071  0
H  H40  1  0.18275835  0.93969571  0.29251511  1  0.39452  0  0.29485  0.285206  0  0.9632  0
H  H41  1  0.86241033  0.66124527  0.73754762  1  0.426193  0  0.291406  0.283341  0  0.992028  0
H  H42  1  0.93595630  0.62468859  0.79053860  1  0.424675  0  0.301594  0.294042  0  0.948107  0
H  H43  1  0.43534102  0.64641125  0.78390327  1  0.410677  0  0.299856  0.290346  0  0.964613  0
H  H44  1  0.48678951  0.68000643  0.73359992  1  0.450325  0  0.292993  0.281602  0  0.981989  0
H  H45  1  0.47406283  0.66773567  0.90820097  1  0.067474  0  0.10199  0.149953  0  0.995655  0
H  H46  1  0.39796996  0.71705701  0.85295384  1  0.040448  0  0.090512  0.120306  0  1.008915  0
H  H47  1  0.47655870  0.56504566  0.86689561  1  0.034201  0  0.090061  0.120756  0  1.012254  0
H  H48  1  0.93734989  0.95380548  0.79927910  1  0.442314  0  0.313582  0.307103  0  0.932677  0
H  H49  1  0.86947160  0.98347144  0.74453564  1  0.435461  0  0.298897  0.29005  0  0.991006  0
H  H50  1  0.38570126  0.09703967  0.24614066  1  0.023339  0  0.091451  0.080718  0  1.037212  0
H  H51  1  0.04858035  0.43587214  0.60024311  1  0.025809  0  0.085606  0.112317  0  1.018243  0
H  H52  1  0.20079102  0.38771959  0.59484263  1  0.065252  0  0.099956  0.144234  0  0.975534  0
H  H53  1  0.13557583  0.33815325  0.55349692  1  0.071872  0  0.103462  0.153795  0  0.99306  0
H  H54  1  0.08976162  0.45779933  0.67317649  1  0.421093  0  0.295334  0.282742  0  0.966729  0
H  H55  1  0.05130242  0.41771226  0.72495168  1  0.398653  0  0.2816  0.261525  0  1.026598  0
H  H56  1  0.27846871  0.88140242  0.65378440  1  0.436107  0  0.303073  0.295336  0  0.947454  0
H  H57  1  0.28897519  0.91664317  0.59434829  1  0.479369  0  0.300366  0.31193  0  0.988291  0
H  H58  1  0.88143176  0.41957304  0.25176470  1  0.036194  0  0.093836  0.126962  0  1.023344  0
H  H59  1  0.81440640  0.41325363  0.19673687  1  0.03614  0  0.094461  0.127166  0  1.015856  0
H  H60  1  0.90588688  0.47684495  0.19710156  1  0.033554  0  0.099122  0.141845  0  0.984454  0
H  H61  1  0.96969204  0.22974366  0.22536616  1  0.069979  0  0.103101  0.10196  0  1.010389  0
H  H62  1  0.58947843  0.97691452  0.24555688  1  0.396775  0  0.281005  0.263664  0  1.014417  0
H  H63  1  0.57770193  0.02075812  0.30280153  1  0.42968  0  0.291651  0.282831  0  0.96728  0
H  H64  1  0.78554428  0.60232419  0.60716491  1  0.104896  0  0.112024  0.116717  0  0.982636  0
H  H65  1  0.62394639  0.53419437  0.28301945  1  0.063212  0  0.102093  0.096736  0  1.00882  0
H  H66  1  0.86011460  0.59553956  0.86422838  1  0.056635  0  0.104804  0.122542  0  1.013641  0
H  H67  1  0.34510034  0.36750951  0.46962985  1  0.578254  0  0.29071  0.380743  0  0.926697  0
H  H68  1  0.95787627  0.97962108  0.97233762  1  0.574928  0  0.286722  0.375342  0  0.935675  0
C  C69  1  0.30467952  0.09098324  0.42460963  1  1.652359  0  0.270672  0.708963  0  4.17101  0
C  C70  1  0.62846241  0.72841953  0.34005572  1  -0.489989  0  -0.013718  -0.010185  0  4.050985  0
C  C71  1  0.78786301  0.14064727  0.26425355  1  -0.032171  0  -0.070409  -0.066142  0  3.642413  0
C  C72  1  0.60060774  0.79519329  0.43168400  1  1.632384  0  0.281186  0.721709  0  4.150439  0
C  C73  1  0.75538040  0.07460733  0.22561191  1  -0.03571  0  -0.073088  -0.136624  0  3.59949  0
C  C74  1  0.68565179  0.23049411  0.10604331  1  0.10402  0  -0.049358  -0.206777  0  3.987384  0
C  C75  1  0.66872553  0.11693539  0.38932043  1  0.15386  0  -0.046397  -0.219228  0  3.970786  0
C  C76  1  0.70658505  0.25946709  0.23896411  1  -0.032058  0  -0.070965  -0.113884  0  3.600106  0
C  C77  1  0.67404890  0.19377183  0.19908121  1  0.12875  0  0.005147  0.136109  0  3.832511  0
C  C78  1  0.59950187  0.27723446  0.27047609  1  0.037784  0  0.002379  0.154498  0  3.677667  0
C  C79  1  0.68199691  0.15757124  0.29708315  1  0.086143  0  0.004794  0.025244  0  3.796036  0
C  C80  1  0.61862237  0.74873271  0.38347872  1  0.237767  0  -0.045951  -0.215284  0  3.964014  0
C  C81  1  0.56755728  0.21119259  0.23162346  1  -0.089248  0  -0.084088  -0.205944  0  3.602982  0
C  C82  1  0.64924461  0.09118003  0.25756410  1  0.458398  0  0.099003  0.260838  0  3.751587  0
C  C83  1  0.67592477  0.21403911  0.14887244  1  -0.43119  0  -0.030954  -0.045524  0  4.092098  0
C  C84  1  0.63231122  0.09511636  0.43538602  1  1.656141  0  0.276736  0.717371  0  4.163395  0
C  C85  1  0.67964337  0.13605715  0.34691661  1  -0.423803  0  -0.019718  -0.00286  0  4.082785  0
C  C86  1  0.11425197  0.26171970  0.26254494  1  -0.03782  0  -0.068989  -0.108716  0  3.62123  0
C  C87  1  0.20173818  0.24942912  0.22114360  1  0.041053  0  0.003397  0.148562  0  3.677179  0
C  C88  1  0.09049360  0.23697845  0.09622178  1  0.072209  0  -0.043354  -0.213022  0  3.967365  0
C  C89  1  0.26287567  0.10588971  0.37567076  1  0.172894  0  -0.048022  -0.209019  0  3.982037  0
C  C90  1  0.06204614  0.20145961  0.23034201  1  -0.038646  0  -0.071915  -0.130186  0  3.63442  0
C  C91  1  0.73759405  0.58199853  0.23040190  1  0.047694  0  0.008055  0.152785  0  3.655958  0
C  C92  1  0.14841494  0.18958243  0.18781036  1  0.110852  0  0.001351  0.046027  0  3.806383  0
C  C93  1  0.15275922  0.07947628  0.25048303  1  0.448034  0  0.094455  0.211503  0  3.75017  0
C  C94  1  0.20649957  0.13897764  0.28348421  1  0.095857  0  0.003675  0.072743  0  3.823893  0
C  C95  1  0.24159894  0.06544868  0.20794836  1  -0.006501  0  -0.005412  0.074656  0  3.669734  0
C  C96  1  0.27472986  0.10898235  0.56331111  1  1.493688  0  0.264193  0.642427  0  4.081175  0
C  C97  1  0.29302369  0.12621676  0.24064055  1  -0.022906  0  -0.075854  -0.153023  0  3.620777  0
C  C98  1  0.11709479  0.21567158  0.13874360  1  -0.403733  0  -0.020125  -0.010633  0  4.078691  0
C  C99  1  0.23701545  0.11762062  0.33288536  1  -0.472638  0  -0.03083  -0.03349  0  4.093932  0
C  C100  1  0.62037497  0.75942601  0.61844887  1  -0.043378  0  -0.014656  -0.045805  0  3.987512  0
C  C101  1  0.72109180  0.65940784  0.63373638  1  -0.001718  0  -0.079752  -0.089189  0  3.978486  0
C  C102  1  0.64788267  0.66845626  0.19113458  1  0.091  0  0.005364  0.076117  0  3.791796  0
C  C103  1  0.73684265  0.63035356  0.68282801  1  -0.134541  0  -0.092602  -0.148252  0  3.97395  0
C  C104  1  0.65581121  0.70371889  0.71797954  1  -0.030927  0  -0.003883  0.100532  0  3.982479  0
C  C105  1  0.55850933  0.80738316  0.70211216  1  -0.056742  0  -0.087773  -0.134649  0  3.970205  0
C  C106  1  0.53927619  0.83342246  0.65309216  1  -0.000649  0  -0.0842  -0.099498  0  3.995803  0
C  C107  1  0.76979400  0.65200810  0.79604244  1  0.398278  0  0.086627  0.262547  0  4.126998  0
C  C108  1  0.59669756  0.79672254  0.56690987  1  1.550839  0  0.27978  0.655355  0  4.070133  0
C  C109  1  0.78005696  0.61883519  0.84465350  1  -0.00039  0  -0.113792  -0.242918  0  4.001483  0
C  C110  1  0.58369472  0.64162721  0.84538160  1  0.004848  0  -0.01846  0.043265  0  3.908997  0
C  C111  1  0.57739682  0.66702287  0.79525377  1  0.359921  0  0.091178  0.200629  0  4.055582  0
C  C112  1  0.66860955  0.67365408  0.77031139  1  0.022334  0  -0.027262  -0.152069  0  3.935779  0
C  C113  1  0.74217647  0.68696227  0.25482011  1  -0.024178  0  -0.068425  -0.115794  0  3.611203  0
C  C114  1  0.68949967  0.61224245  0.86899255  1  0.0264  0  -0.021314  -0.091039  0  4.014584  0
C  C115  1  0.63124807  0.10703697  0.62338212  1  -0.00521  0  -0.015824  -0.044655  0  3.984168  0
C  C116  1  0.68654433  0.01213695  0.65498458  1  -0.04394  0  -0.082608  -0.083929  0  3.987622  0
C  C117  1  0.69710495  0.03092237  0.70378577  1  -0.080079  0  -0.095589  -0.152248  0  3.994391  0
C  C118  1  0.65829286  0.14435688  0.72175347  1  0.026504  0  -0.002244  0.092611  0  3.993687  0
C  C119  1  0.60465877  0.23853757  0.68927238  1  -0.095877  0  -0.08972  -0.13639  0  3.984113  0
C  C120  1  0.61040728  0.08719936  0.57240088  1  1.565093  0  0.270579  0.638297  0  4.097633  0
C  C121  1  0.58844867  0.22068893  0.64099263  1  -0.02616  0  -0.074272  -0.078444  0  3.972023  0
C  C122  1  0.57522130  0.25926026  0.79735115  1  0.012519  0  -0.094188  -0.121661  0  4.044019  0
C  C123  1  0.58081918  0.28674873  0.84545742  1  -0.039389  0  -0.102624  -0.130975  0  4.03541  0
C  C124  1  0.63787738  0.70678180  0.28960643  1  0.090004  0  0.008354  0.118498  0  3.804012  0
C  C125  1  0.77705371  0.12222889  0.84874062  1  0.001068  0  -0.092732  -0.212053  0  3.940257  0
C  C126  1  0.77408940  0.09740195  0.79955118  1  0.43726  0  0.100981  0.262991  0  4.072097  0
C  C127  1  0.66956076  0.16611177  0.77336117  1  -0.044003  0  -0.014584  -0.037396  0  3.947577  0
C  C128  1  0.68316881  0.21672351  0.87134009  1  -0.046552  0  -0.017116  -0.024585  0  4.021678  0
C  C129  1  0.20976444  0.14294298  0.60947621  1  -0.035367  0  -0.03435  -0.234105  0  3.924074  0
C  C130  1  0.15696130  0.26132157  0.62529537  1  0.056553  0  -0.006969  0.084398  0  3.921272  0
C  C131  1  0.11965570  0.28963339  0.67363528  1  0.386138  0  0.070207  0.146354  0  4.047327  0
C  C132  1  0.63224875  0.60237307  0.26366825  1  -0.018785  0  -0.069057  -0.112501  0  3.600382  0
C  C133  1  0.13500812  0.20029663  0.70652718  1  0.003481  0  -0.013636  -0.000246  0  4.018872  0
C  C134  1  0.17782563  0.08702571  0.68944067  1  -0.078896  0  -0.113929  -0.264577  0  4.005824  0
C  C135  1  0.65417543  0.77224233  0.21692319  1  -0.030548  0  -0.068906  -0.080152  0  3.658964  0
C  C136  1  0.21287334  0.05545249  0.64110764  1  0.446493  0  0.095886  0.292039  0  4.116269  0
C  C137  1  0.03559948  0.17640404  0.77894807  1  -0.073411  0  -0.090598  -0.130541  0  3.970937  0
C  C138  1  0.01015110  0.18772353  0.82811993  1  -0.069584  0  -0.079156  -0.074754  0  3.969104  0
C  C139  1  0.11053688  0.29859002  0.83805783  1  -0.091954  0  -0.083325  -0.088916  0  3.997938  0
C  C140  1  0.13985311  0.28342280  0.78893029  1  -0.066967  0  -0.097956  -0.157864  0  4.004984  0
C  C141  1  0.10240435  0.22252558  0.75843998  1  0.037805  0  -0.000934  0.095656  0  3.974079  0
C  C142  1  0.04661245  0.24929647  0.85814205  1  0.049417  0  -0.014889  -0.043456  0  3.978035  0
C  C143  1  0.71689962  0.24953696  0.05818375  1  1.686019  0  0.272241  0.70985  0  4.167714  0
C  C144  1  0.54392600  0.68828077  0.22597080  1  -0.030435  0  -0.071299  -0.082031  0  3.655584  0
C  C145  1  0.70734703  0.55855259  0.05177300  1  1.677961  0  0.280528  0.719664  0  4.155579  0
C  C146  1  0.54934484  0.79258420  0.25050720  1  -0.004718  0  -0.068608  -0.081949  0  3.628708  0
C  C147  1  0.03940353  0.26128553  0.04888857  1  1.677075  0  0.280739  0.709086  0  4.168127  0
C  C148  1  0.70078979  0.24688954  0.92123758  1  1.53979  0  0.271554  0.638722  0  4.082976  0
C  C149  1  0.71674764  0.55998582  0.91826637  1  1.51874  0  0.279353  0.657851  0  4.044585  0
C  C150  1  0.01189447  0.26178836  0.91012813  1  1.54381  0  0.269851  0.638438  0  4.090913  0
C  C151  1  0.67824108  0.61325782  0.09859391  1  0.14371  0  -0.043154  -0.209712  0  3.962469  0
C  C152  1  0.51389068  0.38590679  0.29629742  1  -0.050541  0  -0.236234  -0.419784  0  3.999231  0
C  C153  1  0.22716162  0.34257322  0.20416805  1  -0.038956  0  -0.235482  -0.418551  0  3.999052  0
C  C154  1  0.30520539  0.96075236  0.17616359  1  -0.072753  0  -0.240309  -0.413014  0  4.002615  0
C  C155  1  0.47780288  0.64808215  0.86961563  1  -0.057825  0  -0.24128  -0.397287  0  3.989492  0
C  C156  1  0.13423879  0.36032782  0.59166081  1  -0.067488  0  -0.239408  -0.402347  0  3.968863  0
C  C157  1  0.66055694  0.64262770  0.14107842  1  -0.436174  0  -0.017242  -0.011507  0  4.062874  0
C  C158  1  0.84021204  0.46692969  0.21834908  1  -0.043733  0  -0.236591  -0.424575  0  3.995852  0
N  N159  1  0.12093599  0.99940495  0.27008526  1  -1.145783  0  -0.607879  -0.643649  0  3.269795  0
N  N160  1  0.85717141  0.66772095  0.77419613  1  -1.206935  0  -0.607149  -0.625379  0  3.308395  0
N  N161  1  0.47740253  0.68728699  0.77015203  1  -1.232023  0  -0.607273  -0.622158  0  3.352489  0
N  N162  1  0.87567835  0.01384453  0.77737773  1  -1.235196  0  -0.595137  -0.618551  0  3.348812  0
N  N163  1  0.05930303  0.40747138  0.68840598  1  -1.177162  0  -0.610639  -0.621386  0  3.348701  0
N  N164  1  0.24948260  0.94212130  0.62723711  1  -1.23967  0  -0.602998  -0.626691  0  3.336065  0
N  N165  1  0.62773453  0.00003889  0.27207179  1  -1.182837  0  -0.616568  -0.650193  0  3.270497  0
O  O166  1  0.53078278  0.16919153  0.44931305  1  -1.229984  0  -0.212461  -0.571854  0  2.308728  0
O  O167  1  0.80469717  0.53712077  0.03287059  1  -1.238128  0  -0.22719  -0.58472  0  2.252331  0
O  O168  1  0.00900090  0.36323691  0.03108690  1  -1.246196  0  -0.244212  -0.60621  0  2.223337  0
O  O169  1  0.32814765  0.16627186  0.44131329  1  -1.211826  0  -0.214726  -0.560245  0  2.276107  0
O  O170  1  0.98590530  0.18805051  0.92696884  1  -1.244804  0  -0.216876  -0.566263  0  2.363175  0
O  O171  1  0.79017459  0.17430107  0.94408695  1  -1.261021  0  -0.224712  -0.591101  0  2.361815  0
O  O172  1  0.62640499  0.34952729  0.93728371  1  -1.270028  0  -0.245611  -0.602862  0  2.260676  0
O  O173  1  0.64752377  0.53024263  0.93853048  1  -1.267577  0  -0.229492  -0.595592  0  2.354312  0
O  O174  1  0.81409473  0.53950231  0.93734371  1  -1.2762  0  -0.241797  -0.609065  0  2.300735  0
O  O175  1  0.00652824  0.34867601  0.93410529  1  -1.279626  0  -0.25391  -0.622627  0  2.266062  0
O  O176  1  0.82596897  0.33930297  0.98588376  1  -1.609313  0  -0.391597  -1.269198  0  2.306438  0
O  O177  1  0.49295402  0.83148008  0.55182787  1  -1.271136  0  -0.234269  -0.59952  0  2.294132  0
O  O178  1  0.31770124  0.99874792  0.44683880  1  -1.257837  0  -0.248756  -0.612269  0  2.238384  0
O  O179  1  0.50974219  0.81022426  0.45511680  1  -1.240529  0  -0.232618  -0.595692  0  2.238801  0
O  O180  1  0.67499621  0.82370133  0.44681233  1  -1.237935  0  -0.227105  -0.585095  0  2.245597  0
O  O181  1  0.70308740  0.00020407  0.45766323  1  -1.260587  0  -0.242667  -0.603778  0  2.219928  0
O  O182  1  0.52197077  0.16659902  0.55146511  1  -1.248399  0  -0.214064  -0.560294  0  2.333325  0
O  O183  1  0.31307363  0.17298545  0.54615093  1  -1.250196  0  -0.21069  -0.556297  0  2.398472  0
O  O184  1  0.29674326  0.01052989  0.54277796  1  -1.276108  0  -0.254294  -0.623742  0  2.292878  0
O  O185  1  0.67720117  0.79984431  0.54179502  1  -1.253751  0  -0.234707  -0.593115  0  2.263798  0
O  O186  1  0.68321511  0.98702619  0.55383320  1  -1.281836  0  -0.251814  -0.623452  0  2.293633  0
O  O187  1  0.49726906  0.01048308  0.49807332  1  -1.608794  0  -0.392095  -1.268814  0  2.306606  0
O  O188  1  0.02416473  0.18319350  0.02938298  1  -1.212981  0  -0.199096  -0.529341  0  2.27461  0
O  O189  1  0.82082787  0.18169134  0.04495163  1  -1.21973  0  -0.209529  -0.554806  0  2.292107  0
O  O190  1  0.63833686  0.33564159  0.03372258  1  -1.258937  0  -0.247811  -0.614668  0  2.240331  0
O  O191  1  0.63477557  0.53053793  0.03378476  1  -1.243276  0  -0.231217  -0.591409  0  2.243078  0
O  O192  1  0.34065266  0.33012946  0.49912038  1  -1.368087  0  -0.574003  -0.99659  0  1.809009  0
O  O193  1  0.99424763  0.02011329  0.98715411  1  -1.369878  0  -0.581188  -0.996441  0  1.795279  0
