# generated using pymatgen
data_Al6H39C84N4Cl9O28
_symmetry_space_group_name_H-M   'P 1'
_cell_length_a   13.17397029
_cell_length_b   13.03334646
_cell_length_c   27.69121268
_cell_angle_alpha   90.21617564
_cell_angle_beta   90.03352484
_cell_angle_gamma   59.54212579
_symmetry_Int_Tables_number   1
_chemical_formula_structural   Al6H39C84N4Cl9O28
_chemical_formula_sum   'Al6 H39 C84 N4 Cl9 O28'
_cell_volume   4098.44683746
_cell_formula_units_Z   1
loop_
 _symmetry_equiv_pos_site_id
 _symmetry_equiv_pos_as_xyz
  1  'x, y, z'
loop_
 _atom_site_type_symbol
 _atom_site_label
 _atom_site_symmetry_multiplicity
 _atom_site_fract_x
 _atom_site_fract_y
 _atom_site_fract_z
 _atom_site_occupancy
 _atom_site_pbe_bader_charge
 _atom_site_pbe_bader_spin_density
 _atom_site_pbe_cm5_charge
 _atom_site_pbe_ddec_charge
 _atom_site_pbe_ddec_spin_density
 _atom_site_pbe_ddec_sum_bond_order
 _atom_site_pbe_magmom
Al  Al0  1  0.41418418  0.18231774  0.49501751  1  2.492941  0  0.39192  1.692922  0  2.549798  0
Al  Al1  1  0.41406066  0.93701539  0.49947971  1  2.481155  0  0.506492  1.667718  0  2.487729  0
Al  Al2  1  0.64813141  0.92567336  0.50113806  1  2.483054  0  0.504087  1.6641  0  2.499503  0
Al  Al3  1  0.93203340  0.15599703  0.98301525  1  2.493452  0  0.397488  1.688457  0  2.550178  0
Al  Al4  1  0.67880878  0.39261979  0.98683485  1  2.48113  0  0.500064  1.663992  0  2.511019  0
Al  Al5  1  0.89174734  0.41915713  0.98342114  1  2.483563  0  0.503359  1.66284  0  2.510841  0
H  H6  1  0.52256839  0.60306692  0.22275234  1  0.083228  0  0.104227  0.09985  0  0.990787  0
H  H7  1  0.83210015  0.57714347  0.86518885  1  0.104946  0  0.113104  0.128486  0  1.011435  0
H  H8  1  0.55160605  0.87546249  0.73477539  1  0.100251  0  0.112053  0.134346  0  0.979579  0
H  H9  1  0.70204384  0.50778631  0.69113343  1  0.123241  0  0.108434  0.132903  0  0.993385  0
H  H10  1  0.50847840  0.31923069  0.60643219  1  0.121777  0  0.11674  0.141404  0  0.983671  0
H  H11  1  0.46382333  0.83020909  0.26084018  1  0.098003  0  0.102686  0.097549  0  0.995147  0
H  H12  1  0.86730634  0.13941523  0.75460425  1  0.032363  0  0.094256  0.099387  0  1.014435  0
H  H13  1  0.89721981  0.14334994  0.84337354  1  0.080517  0  0.102924  0.11043  0  1.023763  0
H  H14  1  0.80593204  0.00497345  0.71315533  1  0.072521  0  0.105638  0.110509  0  0.990554  0
H  H15  1  0.78718159  0.95794830  0.62712718  1  0.105009  0  0.110646  0.120169  0  0.986313  0
H  H16  1  0.20639089  0.00930589  0.78245149  1  0.098667  0  0.101392  0.099472  0  1.019063  0
H  H17  1  0.80050212  0.24341827  0.22321837  1  0.075429  0  0.109383  0.112015  0  0.985325  0
H  H18  1  0.14891504  0.04668116  0.86924860  1  0.118735  0  0.122662  0.13155  0  0.970652  0
H  H19  1  0.18236301  0.33375390  0.70877368  1  0.051225  0  0.099582  0.11041  0  1.021292  0
H  H20  1  0.05219535  0.38717717  0.76087977  1  0.045876  0  0.096008  0.090083  0  1.03318  0
H  H21  1  0.62438710  0.83931271  0.19565958  1  0.106601  0  0.102429  0.106594  0  0.998624  0
H  H22  1  0.00661142  0.42081989  0.84867812  1  0.043161  0  0.102845  0.099232  0  1.029846  0
H  H23  1  0.15607465  0.01668707  0.70431939  1  0.072396  0  0.104597  0.107919  0  1.000489  0
H  H24  1  0.21781988  0.98970521  0.61842413  1  0.128244  0  0.114338  0.123769  0  0.980419  0
H  H25  1  0.86415287  0.50328315  0.22727370  1  0.102903  0  0.105652  0.107996  0  1.004536  0
H  H26  1  0.78199542  0.94896044  0.20174488  1  0.08793  0  0.105743  0.113123  0  0.991624  0
H  H27  1  0.88997744  0.02172041  0.27209631  1  0.115152  0  0.111269  0.109212  0  0.969941  0
H  H28  1  0.06819700  0.40139647  0.22709140  1  0.038354  0  0.099997  0.089037  0  1.002552  0
H  H29  1  0.39809642  0.32687444  0.23007109  1  0.413637  0  0.296385  0.291722  0  0.962481  0
H  H30  1  0.44338889  0.26243945  0.17555101  1  0.444141  0  0.304755  0.303148  0  0.937625  0
H  H31  1  0.83513471  0.63117851  0.73616919  1  0.467369  0  0.306263  0.303059  0  0.955121  0
H  H32  1  0.91302033  0.59626222  0.78902282  1  0.427925  0  0.313154  0.3093  0  0.935695  0
H  H33  1  0.46503313  0.25494034  0.74328722  1  0.437299  0  0.291026  0.284521  0  0.974742  0
H  H34  1  0.43037157  0.24990620  0.80135003  1  0.425475  0  0.298802  0.28852  0  0.954902  0
H  H35  1  0.42426178  0.37147542  0.85487168  1  0.444517  0  0.30027  0.290439  0  0.959744  0
H  H36  1  0.51191069  0.33420435  0.90488828  1  0.474648  0  0.299459  0.307339  0  0.975799  0
H  H37  1  0.97000399  0.29778213  0.28790314  1  0.063236  0  0.102222  0.092418  0  0.991331  0
H  H38  1  0.29247658  0.24733678  0.26848988  1  0.050705  0  0.093905  0.078947  0  1.024675  0
H  H39  1  0.33644138  0.07720586  0.19499867  1  0.08659  0  0.096031  0.084511  0  1.00812  0
H  H40  1  0.23829385  0.97351110  0.25562617  1  0.101705  0  0.101311  0.089671  0  0.994862  0
H  H41  1  0.01456591  0.12589454  0.21435099  1  0.069094  0  0.10082  0.089305  0  1.003673  0
H  H42  1  0.70320661  0.49337520  0.29239731  1  0.092259  0  0.095637  0.088806  0  1.027101  0
H  H43  1  0.32395645  0.37391147  0.46186854  1  0.564761  0  0.29226  0.383846  0  0.921661  0
H  H44  1  0.02179532  0.95938432  0.01042597  1  0.591015  0  0.291921  0.382715  0  0.923747  0
C  C45  1  0.28618381  0.10085952  0.42821349  1  1.664311  0  0.276432  0.715129  0  4.160384  0
C  C46  1  0.63936302  0.72182776  0.34266619  1  -0.039334  0  -0.014819  -0.005002  0  4.051373  0
C  C47  1  0.80081985  0.07630438  0.25800018  1  -0.057551  0  -0.06643  -0.061609  0  3.634574  0
C  C48  1  0.60031600  0.78947119  0.43436950  1  1.635237  0  0.286097  0.72563  0  4.142472  0
C  C49  1  0.74095987  0.03538579  0.21980993  1  -0.010878  0  -0.072449  -0.117875  0  3.643833  0
C  C50  1  0.70249716  0.18940844  0.09941103  1  0.204813  0  -0.038078  -0.192603  0  3.958239  0
C  C51  1  0.66448311  0.10065611  0.38293936  1  0.075919  0  -0.031184  -0.174666  0  3.950931  0
C  C52  1  0.75159298  0.19880301  0.23196035  1  0.000934  0  -0.064508  -0.105655  0  3.608055  0
C  C53  1  0.69122324  0.15801080  0.19258541  1  0.088773  0  0.009976  0.089893  0  3.797209  0
C  C54  1  0.63722741  0.25234059  0.26335568  1  0.146627  0  0.025424  0.073816  0  3.710612  0
C  C55  1  0.68759625  0.12984368  0.29086038  1  0.12137  0  0.002536  0.058084  0  3.843801  0
C  C56  1  0.62576594  0.74363280  0.38587950  1  -0.195604  0  -0.036123  -0.198859  0  3.937234  0
C  C57  1  0.57542306  0.21466227  0.22450145  1  0.481004  0  0.094382  0.172101  0  3.81045  0
C  C58  1  0.62684219  0.08992552  0.25132561  1  0.120754  0  0.01958  0.052091  0  3.70114  0
C  C59  1  0.69603320  0.17395260  0.14239848  1  -0.440585  0  -0.026419  -0.026134  0  4.069716  0
C  C60  1  0.62754161  0.08395766  0.42964966  1  1.68898  0  0.278525  0.712049  0  4.1617  0
C  C61  1  0.67973519  0.11446037  0.34069508  1  -0.346799  0  -0.0329  -0.037624  0  4.112234  0
C  C62  1  0.05080908  0.24921452  0.26656707  1  -0.01798  0  -0.068919  -0.078357  0  3.625094  0
C  C63  1  0.10572178  0.30627366  0.23377343  1  -0.000851  0  -0.073764  -0.084536  0  3.634849  0
C  C64  1  0.08349688  0.24262729  0.10002888  1  -0.011157  0  -0.04574  -0.202214  0  3.977054  0
C  C65  1  0.23152661  0.12231076  0.38153803  1  0.324038  0  -0.044859  -0.201999  0  3.977111  0
C  C66  1  0.07606206  0.15313083  0.22701412  1  -0.020119  0  -0.069968  -0.076257  0  3.629518  0
C  C67  1  0.77467851  0.57526295  0.23488820  1  -0.041288  0  -0.070029  -0.114969  0  3.613416  0
C  C68  1  0.12996209  0.21110596  0.19297608  1  0.111021  0  0.007371  0.123321  0  3.799608  0
C  C69  1  0.20050319  0.06859871  0.24877860  1  -0.074324  0  -0.070934  -0.079547  0  3.633527  0
C  C70  1  0.17632002  0.16369018  0.28959697  1  0.139493  0  0.008815  0.125762  0  3.795195  0
C  C71  1  0.25536412  0.12565988  0.21610341  1  -0.028563  0  -0.072976  -0.081185  0  3.639239  0
C  C72  1  0.28161151  0.11522512  0.56497885  1  1.55475  0  0.265539  0.635831  0  4.112883  0
C  C73  1  0.23007710  0.22163855  0.25559470  1  -0.015796  0  -0.074366  -0.080073  0  3.645404  0
C  C74  1  0.10651611  0.23083977  0.14302035  1  -0.280304  0  -0.030177  -0.043725  0  4.085529  0
C  C75  1  0.20268739  0.14087967  0.33921988  1  -0.637171  0  -0.025898  -0.038432  0  4.081426  0
C  C76  1  0.60686971  0.75554958  0.62095955  1  0.027014  0  -0.017311  -0.154555  0  3.922367  0
C  C77  1  0.57028001  0.84013610  0.65838161  1  0.105977  0  0.022395  0.14456  0  4.045152  0
C  C78  1  0.67390746  0.63716199  0.19559706  1  0.099489  0  0.009511  0.129273  0  3.78413  0
C  C79  1  0.58115156  0.80740638  0.70673151  1  -0.014528  0  -0.095725  -0.214862  0  3.9732  0
C  C80  1  0.62841680  0.68758474  0.71894462  1  0.017921  0  -0.00762  0.117926  0  4.037858  0
C  C81  1  0.66620543  0.60132547  0.68235570  1  0.003667  0  -0.096721  -0.21945  0  3.951619  0
C  C82  1  0.65478737  0.63599542  0.63392722  1  0.054197  0  0.021868  0.154688  0  4.041027  0
C  C83  1  0.74388018  0.62848116  0.79605432  1  0.408322  0  0.09885  0.271744  0  4.106546  0
C  C84  1  0.59082689  0.79846866  0.56947864  1  1.610697  0  0.273905  0.661856  0  4.122439  0
C  C85  1  0.75212811  0.60053214  0.84519615  1  -0.04425  0  -0.092889  -0.204813  0  3.940888  0
C  C86  1  0.55474695  0.62982159  0.84608264  1  0.126893  0  0.005224  0.054915  0  4.02045  0
C  C87  1  0.54654426  0.65781615  0.79657603  1  0.08449  0  0.010555  0.053403  0  4.035376  0
C  C88  1  0.63966981  0.65535478  0.77101987  1  0.117285  0  -0.01425  -0.084188  0  3.933708  0
C  C89  1  0.74190554  0.69995577  0.25547104  1  0.15471  0  0.026342  0.124694  0  3.713951  0
C  C90  1  0.66116695  0.59825582  0.87031601  1  0.01826  0  -0.016838  -0.079597  0  3.977661  0
C  C91  1  0.64532195  0.13534295  0.61217552  1  -0.008472  0  -0.02098  -0.040547  0  4.015076  0
C  C92  1  0.57489754  0.25127400  0.62979639  1  0.028947  0  -0.084004  -0.155062  0  3.959952  0
C  C93  1  0.58944649  0.27788671  0.67717776  1  -0.011678  0  0.010432  0.088302  0  4.019357  0
C  C94  1  0.66941038  0.18860549  0.70882830  1  0.014352  0  -0.006746  0.03275  0  3.97855  0
C  C95  1  0.74291321  0.07423752  0.68914116  1  -0.074287  0  -0.088808  -0.123104  0  3.986395  0
C  C96  1  0.61667300  0.10326891  0.56470415  1  1.564817  0  0.266067  0.626592  0  4.11438  0
C  C97  1  0.73280965  0.04761930  0.64147310  1  0.044775  0  -0.087569  -0.100175  0  4.011659  0
C  C98  1  0.58384846  0.24842200  0.79242750  1  0.374737  0  0.080964  0.139526  0  4.034028  0
C  C99  1  0.59861026  0.26308214  0.84254144  1  0.47534  0  0.100961  0.209387  0  4.025564  0
C  C100  1  0.65222799  0.69532168  0.29271847  1  0.110813  0  0.006393  0.076604  0  3.787192  0
C  C101  1  0.80995889  0.17414186  0.82853940  1  -0.025379  0  -0.102439  -0.102802  0  4.060823  0
C  C102  1  0.79321375  0.17086769  0.77953684  1  -0.012481  0  -0.11524  -0.16578  0  4.084483  0
C  C103  1  0.68023158  0.20720139  0.76074644  1  0.01164  0  -0.025677  -0.026871  0  4.028964  0
C  C104  1  0.71327291  0.22118125  0.86064932  1  -0.02265  0  -0.034782  -0.167324  0  3.988291  0
C  C105  1  0.22993564  0.14702239  0.61433333  1  -0.003777  0  -0.023393  -0.121574  0  3.959778  0
C  C106  1  0.21656216  0.24649960  0.64056496  1  0.072476  0  0.023635  0.143415  0  4.033752  0
C  C107  1  0.18626193  0.25904203  0.68935447  1  0.018101  0  -0.101908  -0.216166  0  3.983278  0
C  C108  1  0.68566658  0.56973400  0.27029048  1  -0.030852  0  -0.069429  -0.063311  0  3.627627  0
C  C109  1  0.16497647  0.17750340  0.71351352  1  0.023353  0  -0.00234  0.093137  0  4.006131  0
C  C110  1  0.17430559  0.08068079  0.68703940  1  -0.057313  0  -0.092234  -0.143128  0  3.982876  0
C  C111  1  0.64120314  0.76278472  0.21746641  1  -0.029722  0  -0.073471  -0.124421  0  3.644277  0
C  C112  1  0.20674793  0.06645060  0.63874728  1  -0.027437  0  -0.076546  -0.064577  0  3.981095  0
C  C113  1  0.16074568  0.10021990  0.79642513  1  -0.044535  0  -0.084349  -0.127819  0  3.957046  0
C  C114  1  0.13101175  0.11997000  0.84516404  1  -0.014058  0  -0.067491  -0.069781  0  3.943948  0
C  C115  1  0.05068874  0.33134147  0.83352775  1  0.041398  0  -0.084599  -0.088773  0  4.007148  0
C  C116  1  0.07771312  0.31169233  0.78477152  1  -0.084323  0  -0.094135  -0.135623  0  3.996757  0
C  C117  1  0.13416958  0.19580423  0.76527107  1  -0.040877  0  -0.000757  0.078838  0  3.982124  0
C  C118  1  0.07624473  0.23587741  0.86410631  1  -0.045746  0  -0.01331  -0.047986  0  3.983011  0
C  C119  1  0.72354575  0.21912283  0.05190530  1  1.665895  0  0.276823  0.708908  0  4.168039  0
C  C120  1  0.58473555  0.63181399  0.23242093  1  -0.011928  0  -0.068839  -0.074591  0  3.608545  0
C  C121  1  0.71804742  0.54050338  0.05421728  1  1.628441  0  0.282816  0.723108  0  4.1497  0
C  C122  1  0.55248146  0.75668340  0.25297583  1  -0.033216  0  -0.068588  -0.066876  0  3.629828  0
C  C123  1  0.03561647  0.25385954  0.05233230  1  1.656801  0  0.274461  0.711921  0  4.161109  0
C  C124  1  0.73833733  0.22820984  0.91199656  1  1.506357  0  0.267976  0.651131  0  4.067965  0
C  C125  1  0.69075478  0.54887120  0.92030350  1  1.574604  0  0.280832  0.666304  0  4.04686  0
C  C126  1  0.03413515  0.25917869  0.91484297  1  1.567527  0  0.274184  0.632938  0  4.096905  0
C  C127  1  0.69430962  0.58722972  0.10256821  1  0.276375  0  -0.041784  -0.206148  0  3.961213  0
C  C128  1  0.68504079  0.61010561  0.14565877  1  -0.516786  0  -0.015732  -0.015905  0  4.047188  0
N  N129  1  0.46460271  0.29358083  0.20537550  1  -1.181665  0  -0.607538  -0.63382  0  3.303152  0
N  N130  1  0.83340019  0.63429610  0.77273460  1  -1.236384  0  -0.592625  -0.613192  0  3.319423  0
N  N131  1  0.47067464  0.27799540  0.77785188  1  -1.213612  0  -0.607592  -0.618998  0  3.360568  0
N  N132  1  0.49946352  0.30968975  0.87145410  1  -1.232512  0  -0.600938  -0.609651  0  3.313495  0
Cl  Cl133  1  0.56641940  0.38939522  0.29243442  1  -0.215505  0  -0.006014  -0.084756  0  1.457891  0
Cl  Cl134  1  0.50844733  0.98918908  0.64490747  1  -0.183934  0  0.050762  -0.020969  0  1.648642  0
Cl  Cl135  1  0.41798965  0.69761062  0.76564192  1  -0.191292  0  -0.003508  -0.060303  0  1.583785  0
Cl  Cl136  1  0.43388859  0.64063946  0.87453635  1  -0.167388  0  0.001436  -0.047007  0  1.584818  0
Cl  Cl137  1  0.70004799  0.52920150  0.58907471  1  -0.181703  0  0.004281  -0.054431  0  1.413549  0
Cl  Cl138  1  0.50928697  0.42507707  0.69618706  1  -0.21103  0  -0.013807  -0.089831  0  1.576347  0
Cl  Cl139  1  0.23871985  0.35560620  0.61678824  1  -0.154861  0  0.023397  -0.028651  0  1.54943  0
Cl  Cl140  1  0.84497601  0.74124427  0.27030206  1  -0.228824  0  -0.032976  -0.118855  0  1.399673  0
Cl  Cl141  1  0.54290752  0.02626605  0.26625586  1  -0.226577  0  0.010225  -0.071448  0  1.560952  0
O  O142  1  0.52650319  0.16355941  0.44341521  1  -1.216839  0  -0.208003  -0.55921  0  2.300519  0
O  O143  1  0.81221268  0.52676292  0.03441975  1  -1.240049  0  -0.230342  -0.59079  0  2.241765  0
O  O144  1  0.01684178  0.34471135  0.02692541  1  -1.258441  0  -0.247053  -0.61326  0  2.232392  0
O  O145  1  0.31883590  0.17226942  0.44168611  1  -1.216116  0  -0.209257  -0.560696  0  2.296958  0
O  O146  1  0.03571070  0.17588082  0.93844325  1  -1.238558  0  -0.207325  -0.54778  0  2.341299  0
O  O147  1  0.84261648  0.16204051  0.92667714  1  -1.255344  0  -0.215233  -0.559743  0  2.358422  0
O  O148  1  0.65341709  0.30453187  0.94005335  1  -1.288518  0  -0.256415  -0.635261  0  2.289057  0
O  O149  1  0.62742071  0.51182926  0.93993476  1  -1.260971  0  -0.234073  -0.603187  0  2.365423  0
O  O150  1  0.78391722  0.53806598  0.93963892  1  -1.266531  0  -0.235571  -0.59867  0  2.302734  0
O  O151  1  0.99247773  0.36689456  0.93085832  1  -1.280944  0  -0.250313  -0.616632  0  2.27733  0
O  O152  1  0.83291287  0.32477219  0.98548194  1  -1.615166  0  -0.391802  -1.270964  0  2.309667  0
O  O153  1  0.49589613  0.82055490  0.54850506  1  -1.247185  0  -0.224263  -0.581142  0  2.290496  0
O  O154  1  0.30124315  0.00849112  0.45151111  1  -1.252979  0  -0.243822  -0.607259  0  2.229921  0
O  O155  1  0.49962683  0.81719807  0.45184423  1  -1.235655  0  -0.227516  -0.585719  0  2.235188  0
O  O156  1  0.67822169  0.80436935  0.45570555  1  -1.239363  0  -0.227685  -0.586768  0  2.238928  0
O  O157  1  0.69856037  0.98739260  0.45219445  1  -1.256866  0  -0.240051  -0.598526  0  2.232125  0
O  O158  1  0.51964653  0.17671225  0.54560090  1  -1.253293  0  -0.210651  -0.553606  0  2.367667  0
O  O159  1  0.30861067  0.18357877  0.54399362  1  -1.245357  0  -0.211689  -0.55874  0  2.432565  0
O  O160  1  0.30154097  0.01425729  0.54747432  1  -1.272774  0  -0.251228  -0.615754  0  2.285276  0
O  O161  1  0.66951975  0.81698335  0.55212648  1  -1.249507  0  -0.225037  -0.581175  0  2.289296  0
O  O162  1  0.69064877  0.99920636  0.54740142  1  -1.2823  0  -0.249306  -0.615692  0  2.298532  0
O  O163  1  0.49371626  0.01196011  0.49835225  1  -1.612853  0  -0.391846  -1.269338  0  2.294337  0
O  O164  1  0.01172602  0.17490939  0.04019638  1  -1.205588  0  -0.210684  -0.557353  0  2.290702  0
O  O165  1  0.82022279  0.14911193  0.03166821  1  -1.214179  0  -0.208868  -0.559277  0  2.276981  0
O  O166  1  0.64166939  0.32025805  0.03534478  1  -1.250039  0  -0.241807  -0.600515  0  2.22558  0
O  O167  1  0.64768964  0.51122189  0.03556060  1  -1.236757  0  -0.225532  -0.583622  0  2.247603  0
O  O168  1  0.34102570  0.33829539  0.49358344  1  -1.351017  0  -0.577706  -0.996651  0  1.808854  0
O  O169  1  0.02145750  0.00080889  0.98149671  1  -1.378828  0  -0.57809  -0.997002  0  1.793245  0
