# generated using pymatgen
data_Zr3H23C63N3O16F15
_symmetry_space_group_name_H-M   'P 1'
_cell_length_a   17.51533649
_cell_length_b   17.53244553
_cell_length_c   17.78124363
_cell_angle_alpha   92.40614117
_cell_angle_beta   92.31748302
_cell_angle_gamma   92.86502192
_symmetry_Int_Tables_number   1
_chemical_formula_structural   Zr3H23C63N3O16F15
_chemical_formula_sum   'Zr6 H46 C126 N6 O32 F30'
_cell_volume   5443.79739507
_cell_formula_units_Z   2
loop_
 _symmetry_equiv_pos_site_id
 _symmetry_equiv_pos_as_xyz
  1  'x, y, z'
loop_
 _atom_site_type_symbol
 _atom_site_label
 _atom_site_symmetry_multiplicity
 _atom_site_fract_x
 _atom_site_fract_y
 _atom_site_fract_z
 _atom_site_occupancy
 _atom_site_pbe_bader_charge
 _atom_site_pbe_bader_spin_density
 _atom_site_pbe_cm5_charge
 _atom_site_pbe_ddec_charge
 _atom_site_pbe_ddec_spin_density
 _atom_site_pbe_ddec_sum_bond_order
 _atom_site_pbe_magmom
Zr  Zr0  1  0.81131616  0.95195829  0.84974721  1  2.635385  0  1.6293  2.375416  0  2.763544  0
Zr  Zr1  1  0.75544854  0.84511563  0.00431566  1  2.636381  0  1.628331  2.378223  0  2.746819  0
Zr  Zr2  1  0.99772340  0.98181409  0.93189305  1  2.632957  0  1.629871  2.376461  0  2.754171  0
Zr  Zr3  1  0.91589962  0.79336492  0.90145024  1  2.631076  0  1.619422  2.375661  0  2.736749  0
Zr  Zr4  1  0.83826355  0.03239247  0.03600400  1  2.632465  0  1.6237  2.376122  0  2.746553  0
Zr  Zr5  1  0.94285718  0.87423015  0.08626687  1  2.633179  0  1.62764  2.375921  0  2.763404  0
H  H6  1  0.13630168  0.25877347  0.58882284  1  0.104569  0  0.116121  0.139842  0  0.986372  0
H  H7  1  0.14198699  0.23154741  0.44131669  1  0.067628  0  0.112109  0.13135  0  0.995943  0
H  H8  1  0.63181682  0.57058751  0.34484218  1  0.082687  0  0.115334  0.135387  0  0.986255  0
H  H9  1  0.61942371  0.59375547  0.49158432  1  0.106544  0  0.110777  0.128448  0  0.99992  0
H  H10  1  0.21145729  0.53846130  0.21900090  1  0.10213  0  0.114954  0.135943  0  0.987765  0
H  H11  1  0.19685493  0.38812562  0.23429724  1  0.104884  0  0.108412  0.133326  0  1.008655  0
H  H12  1  0.53576477  0.28798987  0.71421128  1  0.095012  0  0.114736  0.138634  0  0.988859  0
H  H13  1  0.56680240  0.43786390  0.71207378  1  0.061945  0  0.110451  0.129942  0  0.99824  0
H  H14  1  0.50301877  0.16499923  0.32621909  1  0.114497  0  0.114642  0.137483  0  0.989804  0
H  H15  1  0.35261808  0.17831153  0.30212442  1  0.074944  0  0.113424  0.132523  0  0.989402  0
H  H16  1  0.25073257  0.66438968  0.60986259  1  0.123878  0  0.115898  0.139939  0  0.986944  0
H  H17  1  0.40063270  0.65063820  0.63511298  1  0.075678  0  0.111109  0.127857  0  0.994311  0
H  H18  1  0.76051463  0.79562381  0.85056939  1  0.612737  0  0.324507  0.412474  0  0.880223  0
H  H19  1  0.88849986  0.09321853  0.90351812  1  0.625351  0  0.33262  0.42697  0  0.854464  0
H  H20  1  0.05672836  0.84781608  0.97892362  1  0.596376  0  0.331926  0.425185  0  0.856263  0
H  H21  1  0.80859374  0.92090998  0.14526524  1  0.605393  0  0.330882  0.424595  0  0.85921  0
H  H22  1  0.04532369  0.76155665  0.70451407  1  0.124704  0  0.117686  0.145575  0  0.990109  0
H  H23  1  0.29019250  0.91288775  0.69197282  1  0.116846  0  0.113847  0.13892  0  0.999458  0
H  H24  1  0.46175045  0.69751218  0.73670948  1  0.088724  0  0.10979  0.131171  0  1.000183  0
H  H25  1  0.59985664  0.94945055  0.72992357  1  0.128159  0  0.123437  0.150843  0  0.972248  0
H  H26  1  0.14660551  0.88453023  0.21177497  1  0.148634  0  0.120764  0.153022  0  0.985215  0
H  H27  1  0.29974251  0.12704466  0.19521970  1  0.095034  0  0.110715  0.132865  0  0.999363  0
H  H28  1  0.70356290  0.07102407  0.22153037  1  0.129303  0  0.118287  0.147641  0  0.988689  0
H  H29  1  0.46285970  0.91538866  0.24472469  1  0.110995  0  0.112771  0.137673  0  1.002527  0
H  H30  1  0.31100571  0.03355048  0.45022181  1  0.121194  0  0.11501  0.141259  0  0.993169  0
H  H31  1  0.44403891  0.79576613  0.48642225  1  0.11294  0  0.113927  0.14068  0  0.994657  0
H  H32  1  0.62244335  0.08279175  0.80535746  1  0.145647  0  0.120099  0.149949  0  0.983291  0
H  H33  1  0.58128570  0.31196081  0.96821286  1  0.109592  0  0.110594  0.135972  0  1.004431  0
H  H34  1  0.58508755  0.56021848  0.75082647  1  0.056499  0  0.110507  0.130601  0  0.993279  0
H  H35  1  0.68839792  0.57096570  0.01513210  1  0.135948  0  0.113139  0.143353  0  1.009175  0
H  H36  1  0.06139515  0.17376795  0.15597538  1  0.110711  0  0.107744  0.130652  0  1.030948  0
H  H37  1  0.17432912  0.34509871  0.97022451  1  0.104466  0  0.113591  0.141116  0  0.998822  0
H  H38  1  0.06077182  0.59809372  0.93907902  1  0.15583  0  0.125271  0.156812  0  0.962799  0
H  H39  1  0.24122483  0.65609542  0.15853348  1  0.101523  0  0.117749  0.143628  0  0.975102  0
H  H40  1  0.31863127  0.30410560  0.03922277  1  0.122588  0  0.115875  0.146849  0  1.000313  0
H  H41  1  0.43189592  0.51399846  0.89800655  1  0.107297  0  0.114759  0.145115  0  0.99696  0
H  H42  1  0.90888843  0.73100828  0.27439047  1  0.130653  0  0.124221  0.155716  0  0.967097  0
H  H43  1  0.69378156  0.53779585  0.22824561  1  0.099688  0  0.116809  0.141863  0  0.97751  0
H  H44  1  0.65640815  0.66611701  0.57688463  1  0.086275  0  0.109517  0.130036  0  1.00319  0
H  H45  1  0.92641270  0.69273912  0.66871032  1  0.104874  0  0.119025  0.143609  0  0.982613  0
H  H46  1  0.10572327  0.18588298  0.33593034  1  0.086047  0  0.112041  0.133381  0  1.001894  0
H  H47  1  0.82943670  0.12407412  0.28443659  1  0.142767  0  0.119278  0.145122  0  0.978751  0
H  H48  1  0.04588829  0.16824175  0.79353092  1  0.160664  0  0.119691  0.153714  0  0.988034  0
H  H49  1  0.88167200  0.19524868  0.56343055  1  0.090904  0  0.113196  0.13841  0  0.994485  0
H  H50  1  0.96999228  0.36974271  0.37419903  1  0.094907  0  0.114666  0.145107  0  0.99382  0
H  H51  1  0.79306397  0.45592297  0.56459964  1  0.082564  0  0.115012  0.14197  0  0.994226  0
C  C52  1  0.01542444  0.27895024  0.56490137  1  0.288105  0  0.078155  0.102864  0  3.898225  0
C  C53  1  0.09085785  0.26867850  0.54764513  1  0.015211  0  -0.090874  -0.159528  0  3.97158  0
C  C54  1  0.09329012  0.25392019  0.46909379  1  -0.008793  0  -0.100318  -0.179025  0  3.980133  0
C  C55  1  0.01979837  0.25682917  0.43729738  1  0.319702  0  0.08252  0.117731  0  3.93703  0
C  C56  1  0.75140583  0.54770990  0.37325599  1  0.277466  0  0.07918  0.106256  0  3.916001  0
C  C57  1  0.67527279  0.55874945  0.38742055  1  0.018881  0  -0.096831  -0.170292  0  3.986832  0
C  C58  1  0.66946157  0.57216094  0.46565564  1  -0.079821  0  -0.103266  -0.18217  0  3.998957  0
C  C59  1  0.74186388  0.56953789  0.50026099  1  0.334401  0  0.079709  0.110561  0  3.914791  0
C  C60  1  0.24143705  0.50901666  0.10306283  1  0.285895  0  0.078589  0.101206  0  3.921949  0
C  C61  1  0.22792416  0.49541336  0.17799223  1  -0.00889  0  -0.099472  -0.173149  0  3.986593  0
C  C62  1  0.21904719  0.41578414  0.18580351  1  -0.018513  0  -0.101847  -0.179212  0  3.995393  0
C  C63  1  0.22655284  0.37994329  0.11549343  1  0.326987  0  0.077781  0.107415  0  3.93233  0
C  C64  1  0.50692977  0.31133281  0.83146188  1  0.321686  0  0.074855  0.094743  0  3.900019  0
C  C65  1  0.52292884  0.32949338  0.75824707  1  -0.035574  0  -0.093892  -0.161473  0  3.978263  0
C  C66  1  0.53926716  0.40908603  0.75736836  1  0.054361  0  -0.104144  -0.185609  0  3.993898  0
C  C67  1  0.53181107  0.44062067  0.82954092  1  0.272188  0  0.080594  0.114781  0  3.941676  0
C  C68  1  0.47270361  0.04289862  0.33430631  1  0.264747  0  0.08138  0.11685  0  3.900722  0
C  C69  1  0.45917823  0.11982592  0.33160344  1  -0.002536  0  -0.089835  -0.158799  0  3.953714  0
C  C70  1  0.37925568  0.12653210  0.31844143  1  0.008466  0  -0.098551  -0.18054  0  3.981243  0
C  C71  1  0.34383034  0.05417376  0.31498476  1  0.238643  0  0.080668  0.118552  0  3.925776  0
C  C72  1  0.28157080  0.78632325  0.60132222  1  0.307626  0  0.082592  0.119645  0  3.903998  0
C  C73  1  0.29476737  0.70939835  0.60470201  1  -0.059294  0  -0.092323  -0.164761  0  3.959825  0
C  C74  1  0.37452002  0.70256196  0.61846597  1  0.006508  0  -0.099766  -0.179515  0  3.988653  0
C  C75  1  0.41029056  0.77486031  0.62176583  1  0.242485  0  0.078269  0.113366  0  3.928929  0
C  C76  1  0.93622473  0.05603883  0.77530825  1  1.57006  0  0.232127  0.653262  0  4.114344  0
C  C77  1  0.64410216  0.87395093  0.85115666  1  1.573408  0  0.233166  0.650141  0  4.109861  0
C  C78  1  0.83994831  0.79762571  0.73628471  1  1.585273  0  0.232351  0.650636  0  4.110509  0
C  C79  1  0.72922385  0.10362731  0.91620575  1  1.574061  0  0.236715  0.661297  0  4.09925  0
C  C80  1  0.82069311  0.76207352  0.15447646  1  1.563104  0  0.236501  0.660688  0  4.103155  0
C  C81  1  0.10704417  0.95708520  0.08804928  1  1.579913  0  0.235407  0.654486  0  4.09842  0
C  C82  1  0.75961468  0.67803509  0.92806913  1  1.615216  0  0.237291  0.657433  0  4.108874  0
C  C83  1  0.67887580  0.96765151  0.10716028  1  1.571515  0  0.231488  0.65245  0  4.115711  0
C  C84  1  0.99920585  0.14425914  0.01419814  1  1.622213  0  0.239473  0.66351  0  4.104666  0
C  C85  1  0.06962677  0.86182991  0.82218837  1  1.579689  0  0.236695  0.661384  0  4.099557  0
C  C86  1  0.01970553  0.71869098  0.02458730  1  1.561406  0  0.230028  0.652696  0  4.120168  0
C  C87  1  0.91840263  0.03464560  0.19813861  1  1.617344  0  0.233283  0.652487  0  4.118627  0
C  C88  1  0.09762152  0.79688533  0.69949057  1  0.028061  0  -0.088437  -0.192617  0  3.984599  0
C  C89  1  0.11727981  0.85452996  0.75533241  1  0.083775  0  -0.02126  -0.129605  0  3.970414  0
C  C90  1  0.18482062  0.89923012  0.74637190  1  0.462258  0  0.106375  0.279523  0  4.04599  0
C  C91  1  0.23454278  0.88247484  0.69022602  1  0.094344  0  -0.096563  -0.234558  0  3.988704  0
C  C92  1  0.21777615  0.82130906  0.63725291  1  0.031377  0  -0.004383  -0.016737  0  4.029367  0
C  C93  1  0.14554530  0.78286663  0.64137662  1  0.406644  0  0.092505  0.227479  0  4.05246  0
C  C94  1  0.49305257  0.75217498  0.73226075  1  0.058216  0  -0.100525  -0.243083  0  3.981443  0
C  C95  1  0.47665076  0.79903688  0.67137014  1  0.064424  0  -0.00757  -0.022984  0  4.034156  0
C  C96  1  0.51681409  0.87067188  0.67432690  1  0.418503  0  0.092857  0.229421  0  4.049151  0
C  C97  1  0.56857604  0.89445889  0.73229898  1  0.026679  0  -0.081354  -0.177414  0  3.968031  0
C  C98  1  0.58249237  0.84845014  0.79373676  1  0.128661  0  -0.020396  -0.12666  0  3.964018  0
C  C99  1  0.54290446  0.77701213  0.79161517  1  0.403851  0  0.1011  0.2702  0  4.067825  0
C  C100  1  0.18088704  0.93757105  0.20774805  1  0.06158  0  -0.084566  -0.18555  0  3.970527  0
C  C101  1  0.16993566  0.98169082  0.14430785  1  0.038439  0  -0.019549  -0.123902  0  3.956926  0
C  C102  1  0.21439640  0.05016872  0.14288599  1  0.479954  0  0.102791  0.274219  0  4.059155  0
C  C103  1  0.26522480  0.07462965  0.20158355  1  0.018683  0  -0.098705  -0.24116  0  3.981041  0
C  C104  1  0.27759306  0.03013773  0.26508179  1  0.049827  0  -0.007834  -0.02386  0  4.032719  0
C  C105  1  0.23359620  0.96090024  0.26499610  1  0.451354  0  0.091806  0.229808  0  4.051332  0
C  C106  1  0.65244732  0.03459285  0.22900969  1  -0.017658  0  -0.091187  -0.200297  0  3.994143  0
C  C107  1  0.63180192  0.97604138  0.17427930  1  0.077355  0  -0.025551  -0.136244  0  3.98055  0
C  C108  1  0.56560172  0.93038646  0.18608938  1  0.465664  0  0.105566  0.280358  0  4.046494  0
C  C109  1  0.51791167  0.94668971  0.24411363  1  0.027899  0  -0.097734  -0.236143  0  3.986826  0
C  C110  1  0.53555360  0.00850415  0.29619681  1  0.120651  0  -0.003169  -0.014374  0  4.025467  0
C  C111  1  0.60681351  0.04808778  0.28904631  1  0.419498  0  0.091578  0.228269  0  4.049313  0
C  C112  1  0.34045224  0.98082779  0.45667655  1  0.058005  0  -0.097876  -0.258954  0  4.005803  0
C  C113  1  0.38789030  0.95529560  0.40018479  1  0.384849  0  0.085651  0.090592  0  4.014936  0
C  C114  1  0.42457687  0.88784215  0.41454842  1  0.446541  0  0.093651  0.214204  0  4.04805  0
C  C115  1  0.41442131  0.84839732  0.47981771  1  0.048456  0  -0.099573  -0.26303  0  4.009001  0
C  C116  1  0.36680794  0.87386183  0.53619178  1  0.365224  0  0.085412  0.090299  0  4.015919  0
C  C117  1  0.33029355  0.94143212  0.52195008  1  0.481319  0  0.09492  0.215494  0  4.04749  0
C  C118  1  0.61125237  0.13159183  0.84245327  1  0.041044  0  -0.087743  -0.188955  0  3.9839  0
C  C119  1  0.66034499  0.14853957  0.90626282  1  -0.003212  0  -0.025602  -0.139067  0  3.974245  0
C  C120  1  0.64286536  0.21114939  0.95330288  1  0.483303  0  0.10485  0.282935  0  4.043244  0
C  C121  1  0.58597654  0.25967509  0.93383334  1  0.072771  0  -0.101404  -0.248068  0  3.978153  0
C  C122  1  0.54157193  0.24679326  0.86617105  1  0.03263  0  -0.000347  -0.001157  0  4.04261  0
C  C123  1  0.55268699  0.17815989  0.82489410  1  0.450268  0  0.09075  0.224313  0  4.046856  0
C  C124  1  0.60742129  0.56031738  0.80886653  1  0.042913  0  -0.100591  -0.239988  0  4.007367  0
C  C125  1  0.57640813  0.50833230  0.85963772  1  0.051356  0  -0.012342  -0.038255  0  4.053015  0
C  C126  1  0.60780183  0.51613614  0.93407236  1  0.419877  0  0.096414  0.237235  0  4.021312  0
C  C127  1  0.66790089  0.56754787  0.95643602  1  0.071637  0  -0.086543  -0.189823  0  3.964351  0
C  C128  1  0.70147047  0.61462489  0.90405562  1  0.044097  0  -0.013585  -0.099799  0  3.951923  0
C  C129  1  0.66856336  0.61001345  0.83112297  1  0.438971  0  0.095283  0.255331  0  4.077715  0
C  C130  1  0.08618269  0.21061889  0.11478662  1  0.105111  0  -0.092271  -0.198327  0  4.002076  0
C  C131  1  0.05774586  0.20607164  0.04007821  1  0.011343  0  -0.0147  -0.105385  0  3.95687  0
C  C132  1  0.09445646  0.25297102  0.98943143  1  0.407125  0  0.101721  0.269872  0  4.050084  0
C  C133  1  0.15357956  0.30548401  0.01121793  1  0.065772  0  -0.09684  -0.235674  0  3.967104  0
C  C134  1  0.18196431  0.31163252  0.08690988  1  0.033301  0  -0.012257  -0.035204  0  4.051897  0
C  C135  1  0.14814672  0.25983306  0.13578972  1  0.423913  0  0.091535  0.231429  0  4.025261  0
C  C136  1  0.10088790  0.61138358  0.98680802  1  0.019368  0  -0.084965  -0.185908  0  3.975981  0
C  C137  1  0.08937171  0.67481394  0.03523045  1  0.037654  0  -0.028031  -0.143574  0  3.983797  0
C  C138  1  0.14462278  0.69084474  0.09423451  1  0.501707  0  0.104063  0.277556  0  4.055055  0
C  C139  1  0.20266153  0.64252521  0.10972659  1  0.025974  0  -0.100397  -0.253066  0  3.992603  0
C  C140  1  0.20784963  0.57335251  0.06743870  1  0.03986  0  -0.00043  -0.001816  0  4.049721  0
C  C141  1  0.15913554  0.56339094  0.00202779  1  0.432932  0  0.093668  0.228532  0  4.031636  0
C  C142  1  0.34136264  0.35170032  0.00814747  1  0.052656  0  -0.103627  -0.273595  0  4.010152  0
C  C143  1  0.31000011  0.42376341  0.01466071  1  0.36154  0  0.088782  0.088893  0  4.016986  0
C  C144  1  0.34675201  0.48015485  0.97285951  1  0.451868  0  0.090359  0.208109  0  4.053273  0
C  C145  1  0.40881910  0.46643624  0.92895571  1  0.090173  0  -0.103959  -0.272594  0  4.010739  0
C  C146  1  0.44052261  0.39456405  0.92294418  1  0.365674  0  0.088494  0.090981  0  4.021913  0
C  C147  1  0.40321152  0.33795863  0.96408608  1  0.488342  0  0.092292  0.210625  0  4.046532  0
C  C148  1  0.86228015  0.68797844  0.26367956  1  0.059501  0  -0.084909  -0.187044  0  3.977622  0
C  C149  1  0.81259386  0.69356635  0.20039792  1  0.049035  0  -0.023384  -0.133427  0  3.976547  0
C  C150  1  0.75469125  0.63543227  0.18827977  1  0.459878  0  0.105155  0.275764  0  4.053483  0
C  C151  1  0.74196947  0.57903374  0.23908393  1  0.02879  0  -0.101357  -0.255181  0  3.998167  0
C  C152  1  0.78564699  0.57934870  0.30739224  1  0.033819  0  -0.001523  -0.005831  0  4.043803  0
C  C153  1  0.84938341  0.63237841  0.31495226  1  0.456586  0  0.095262  0.233508  0  4.038202  0
C  C154  1  0.71630445  0.66969524  0.59581333  1  0.041422  0  -0.101812  -0.243875  0  3.988423  0
C  C155  1  0.76829541  0.61802521  0.56617789  1  0.025939  0  -0.007842  -0.024934  0  4.02509  0
C  C156  1  0.84447301  0.63075892  0.59444594  1  0.459595  0  0.093779  0.229707  0  4.036667  0
C  C157  1  0.86718848  0.68852760  0.64731026  1  0.04273  0  -0.084219  -0.184007  0  3.976101  0
C  C158  1  0.81561031  0.74118050  0.67338357  1  0.072672  0  -0.019614  -0.119569  0  3.964733  0
C  C159  1  0.73996482  0.72992533  0.64516277  1  0.449139  0  0.098895  0.268359  0  4.081368  0
C  C160  1  0.04453591  0.17316101  0.32715224  1  0.035338  0  -0.098467  -0.238186  0  3.992745  0
C  C161  1  0.99129758  0.21308918  0.36949227  1  0.051103  0  -0.009877  -0.032094  0  4.039705  0
C  C162  1  0.91374881  0.19214399  0.35089760  1  0.45085  0  0.095417  0.232521  0  4.031727  0
C  C163  1  0.89042124  0.13568732  0.29676839  1  0.0058  0  -0.086199  -0.190243  0  3.976583  0
C  C164  1  0.94400999  0.09282100  0.25954452  1  0.014546  0  -0.016773  -0.110484  0  3.961767  0
C  C165  1  0.02100608  0.11351356  0.27710228  1  0.432136  0  0.096947  0.254946  0  4.076292  0
C  C166  1  0.00859989  0.17561974  0.74414277  1  0.017226  0  -0.087523  -0.191279  0  3.97805  0
C  C167  1  0.94638815  0.12276718  0.72751049  1  0.057488  0  -0.027374  -0.143299  0  3.981969  0
C  C168  1  0.89876014  0.13594807  0.66431571  1  0.415064  0  0.104785  0.281909  0  4.046092  0
C  C169  1  0.91603478  0.19318391  0.61557828  1  0.096  0  -0.099441  -0.241949  0  3.984902  0
C  C170  1  0.98173224  0.24243351  0.62878003  1  0.072877  0  -0.002313  -0.008026  0  4.039024  0
C  C171  1  0.02372157  0.23449081  0.69705971  1  0.410588  0  0.091582  0.227418  0  4.041984  0
C  C172  1  0.93099230  0.38689470  0.41718854  1  0.085454  0  -0.104271  -0.273664  0  4.014361  0
C  C173  1  0.92484389  0.34586602  0.48289122  1  0.391875  0  0.087338  0.091337  0  4.024532  0
C  C174  1  0.87381844  0.37488583  0.53453549  1  0.46011  0  0.092036  0.211071  0  4.043648  0
C  C175  1  0.83241532  0.43885767  0.52189518  1  0.114625  0  -0.102441  -0.267759  0  4.020157  0
C  C176  1  0.83909539  0.48037995  0.45649029  1  0.37781  0  0.089173  0.092708  0  4.01758  0
C  C177  1  0.88944890  0.45080225  0.40443497  1  0.445784  0  0.092832  0.213997  0  4.042604  0
N  N178  1  0.97220386  0.28280198  0.49515701  1  -1.100035  0  -0.228041  -0.085558  0  3.54821  0
N  N179  1  0.79142490  0.54306596  0.44410519  1  -1.087528  0  -0.222595  -0.074113  0  3.56107  0
N  N180  1  0.25085304  0.43700379  0.06584537  1  -1.138819  0  -0.224387  -0.067974  0  3.593286  0
N  N181  1  0.50160526  0.38177280  0.87390045  1  -1.120365  0  -0.224925  -0.073309  0  3.584546  0
N  N182  1  0.39999937  0.00127790  0.33564792  1  -1.064135  0  -0.23746  -0.113385  0  3.492179  0
N  N183  1  0.35430966  0.82772614  0.60058568  1  -1.062961  0  -0.236115  -0.110101  0  3.494782  0
O  O184  1  0.99168845  0.04153978  0.81989833  1  -1.16668  0  -0.33957  -0.595439  0  2.262562  0
O  O185  1  0.64844357  0.84691417  0.91600110  1  -1.163047  0  -0.32331  -0.588554  0  2.199204  0
O  O186  1  0.81329548  0.86319434  0.74185522  1  -1.161064  0  -0.320644  -0.58521  0  2.190769  0
O  O187  1  0.74589351  0.06042314  0.86057103  1  -1.178815  0  -0.346915  -0.606946  0  2.280213  0
O  O188  1  0.76812666  0.11199905  0.97917086  1  -1.177454  0  -0.376251  -0.634408  0  2.284519  0
O  O189  1  0.88728426  0.76980367  0.78386927  1  -1.176771  0  -0.377832  -0.633528  0  2.318671  0
O  O190  1  0.69271787  0.92276116  0.82553012  1  -1.174344  0  -0.379727  -0.632955  0  2.340742  0
O  O191  1  0.87127522  0.01812779  0.76983531  1  -1.176013  0  -0.377396  -0.634133  0  2.296366  0
O  O192  1  0.78412884  0.95019576  0.96271294  1  -1.200596  0  -0.791085  -1.151872  0  2.139635  0
O  O193  1  0.91565843  0.90798489  0.87674025  1  -1.198749  0  -0.790783  -1.150879  0  2.139321  0
O  O194  1  0.79362370  0.82883091  0.88415843  1  -1.244428  0  -0.692613  -1.068469  0  2.371757  0
O  O195  1  0.88586435  0.04135836  0.92057387  1  -1.256863  0  -0.694069  -1.075296  0  2.361847  0
O  O196  1  0.76524922  0.77760014  0.11068062  1  -1.165016  0  -0.341989  -0.603382  0  2.292264  0
O  O197  1  0.10198935  0.98447091  0.02336147  1  -1.167355  0  -0.325834  -0.592932  0  2.206475  0
O  O198  1  0.82563854  0.68263037  0.90202000  1  -1.170328  0  -0.320876  -0.592366  0  2.167983  0
O  O199  1  0.72342815  0.02415557  0.09287326  1  -1.174623  0  -0.340048  -0.597236  0  2.268613  0
O  O200  1  0.93480568  0.13770779  0.04343280  1  -1.171485  0  -0.322074  -0.589113  0  2.165601  0
O  O201  1  0.02521824  0.80482043  0.83575023  1  -1.179923  0  -0.345133  -0.607798  0  2.265218  0
O  O202  1  0.00008132  0.76094798  0.07942734  1  -1.170089  0  -0.345902  -0.606732  0  2.298417  0
O  O203  1  0.94689283  0.97009575  0.19286594  1  -1.170393  0  -0.318703  -0.588376  0  2.179616  0
O  O204  1  0.98384739  0.71082999  0.95970460  1  -1.178317  0  -0.37123  -0.632508  0  2.231049  0
O  O205  1  0.86622241  0.05949461  0.15367797  1  -1.182006  0  -0.379034  -0.635938  0  2.298184  0
O  O206  1  0.73127192  0.72618214  0.97384556  1  -1.164312  0  -0.366506  -0.611594  0  2.312929  0
O  O207  1  0.07731044  0.92472599  0.86196205  1  -1.169409  0  -0.372315  -0.628555  0  2.297581  0
O  O208  1  0.02459987  0.09977430  0.96287557  1  -1.170286  0  -0.374868  -0.628463  0  2.315937  0
O  O209  1  0.67314349  0.90329215  0.06953858  1  -1.171354  0  -0.372263  -0.627908  0  2.283522  0
O  O210  1  0.88395020  0.80271048  0.16515076  1  -1.185011  0  -0.376397  -0.636341  0  2.253767  0
O  O211  1  0.05932886  0.90722491  0.11354800  1  -1.175543  0  -0.384449  -0.637082  0  2.357397  0
O  O212  1  0.93997997  0.97655622  0.03198525  1  -1.203321  0  -0.787737  -1.154055  0  2.114467  0
O  O213  1  0.87049708  0.81912394  0.00424629  1  -1.201018  0  -0.790246  -1.152649  0  2.132414  0
O  O214  1  0.00435922  0.86337970  0.97612859  1  -1.225927  0  -0.694918  -1.073649  0  2.368856  0
O  O215  1  0.82572803  0.91963036  0.09406301  1  -1.239905  0  -0.695691  -1.078034  0  2.368638  0
F  F216  1  0.12538235  0.72446225  0.58996650  1  -0.63636  0  -0.107948  -0.151967  0  1.319923  0
F  F217  1  0.20788775  0.95664287  0.79684321  1  -0.625139  0  -0.096076  -0.127867  0  1.340901  0
F  F218  1  0.55211104  0.72916653  0.84900362  1  -0.635211  0  -0.093601  -0.129917  0  1.374623  0
F  F219  1  0.50426481  0.91976289  0.61807731  1  -0.639168  0  -0.101935  -0.140538  0  1.358431  0
F  F220  1  0.24283623  0.91398563  0.32376626  1  -0.638869  0  -0.106083  -0.144293  0  1.35183  0
F  F221  1  0.20920396  0.09537829  0.08300024  1  -0.632058  0  -0.092562  -0.127908  0  1.367704  0
F  F222  1  0.62808283  0.10709346  0.33950634  1  -0.637872  0  -0.10808  -0.152638  0  1.319303  0
F  F223  1  0.54197198  0.87212860  0.13681104  1  -0.627043  0  -0.095786  -0.127588  0  1.337628  0
F  F224  1  0.28314906  0.97186029  0.57292145  1  -0.638721  0  -0.093578  -0.126797  0  1.374755  0
F  F225  1  0.47203437  0.85756627  0.36365242  1  -0.634152  0  -0.096902  -0.130836  0  1.370865  0
F  F226  1  0.50840845  0.16094017  0.76070795  1  -0.634754  0  -0.108555  -0.15275  0  1.318541  0
F  F227  1  0.68530709  0.23036532  0.01741823  1  -0.625596  0  -0.099654  -0.132981  0  1.339699  0
F  F228  1  0.69587897  0.65959591  0.78007452  1  -0.644628  0  -0.098092  -0.145382  0  1.391555  0
F  F229  1  0.58091410  0.46874252  0.98721779  1  -0.638906  0  -0.101374  -0.144788  0  1.363576  0
F  F230  1  0.17528273  0.25991545  0.20935973  1  -0.64435  0  -0.104593  -0.155441  0  1.345223  0
F  F231  1  0.06860751  0.25029367  0.91597287  1  -0.633077  0  -0.099223  -0.140896  0  1.339903  0
F  F232  1  0.16392566  0.50010890  0.95540192  1  -0.633566  0  -0.101388  -0.145162  0  1.362702  0
F  F233  1  0.14251963  0.75502618  0.13944273  1  -0.629512  0  -0.092704  -0.130771  0  1.379423  0
F  F234  1  0.42680546  0.26513352  0.96259723  1  -0.629603  0  -0.091569  -0.12302  0  1.393764  0
F  F235  1  0.32304758  0.55301246  0.97444017  1  -0.631068  0  -0.094377  -0.129583  0  1.395821  0
F  F236  1  0.89590081  0.63513901  0.37829708  1  -0.625068  0  -0.102077  -0.143223  0  1.368555  0
F  F237  1  0.70706070  0.63351561  0.12591555  1  -0.63083  0  -0.084564  -0.12495  0  1.392357  0
F  F238  1  0.68599069  0.77773968  0.66827195  1  -0.636984  0  -0.096535  -0.138418  0  1.392528  0
F  F239  1  0.89994464  0.58573720  0.56873273  1  -0.636198  0  -0.097368  -0.134292  0  1.376204  0
F  F240  1  0.07620798  0.07557178  0.24148952  1  -0.64032  0  -0.087757  -0.133058  0  1.414767  0
F  F241  1  0.85768632  0.22631003  0.38905712  1  -0.636177  0  -0.09964  -0.140237  0  1.368539  0
F  F242  1  0.08611578  0.28309394  0.71387201  1  -0.635884  0  -0.107153  -0.150871  0  1.320561  0
F  F243  1  0.83647701  0.08906913  0.64506511  1  -0.624685  0  -0.098961  -0.131892  0  1.341246  0
F  F244  1  0.89959009  0.48361708  0.33727877  1  -0.629828  0  -0.095108  -0.130594  0  1.399766  0
F  F245  1  0.86265834  0.34045843  0.60073416  1  -0.633085  0  -0.094121  -0.125837  0  1.384403  0
