# generated using pymatgen
data_AlH24C24(N2O)6
_symmetry_space_group_name_H-M   'P 1'
_cell_length_a   3.91848516
_cell_length_b   29.09491916
_cell_length_c   29.09482370
_cell_angle_alpha   119.99621285
_cell_angle_beta   90.00020937
_cell_angle_gamma   89.99872971
_symmetry_Int_Tables_number   1
_chemical_formula_structural   AlH24C24(N2O)6
_chemical_formula_sum   'Al2 H48 C48 N24 O12'
_cell_volume   2872.75305139
_cell_formula_units_Z   2
loop_
 _symmetry_equiv_pos_site_id
 _symmetry_equiv_pos_as_xyz
  1  'x, y, z'
loop_
 _atom_site_type_symbol
 _atom_site_label
 _atom_site_symmetry_multiplicity
 _atom_site_fract_x
 _atom_site_fract_y
 _atom_site_fract_z
 _atom_site_occupancy
 _atom_site_pbe_bader_charge
 _atom_site_pbe_bader_spin_density
 _atom_site_pbe_cm5_charge
 _atom_site_pbe_ddec_charge
 _atom_site_pbe_ddec_spin_density
 _atom_site_pbe_ddec_sum_bond_order
 _atom_site_pbe_magmom
Al  Al0  1  0.00003580  0.50000601  0.50000234  1  2.499878  0  0.420668  1.587054  0  2.572015  0
Al  Al1  1  0.99968025  0.16665959  0.83334781  1  2.500474  0  0.420815  1.587156  0  2.571757  0
H  H2  1  0.19816652  0.14484212  0.70668037  1  0.464077  0  0.296492  0.301042  0  0.983972  0
H  H3  1  0.23697696  0.14313878  0.64699258  1  0.421982  0  0.293049  0.280155  0  0.968555  0
H  H4  1  0.80083574  0.29334554  0.85518222  1  0.461799  0  0.296643  0.301357  0  0.9839  0
H  H5  1  0.76241933  0.35301309  0.85684630  1  0.420068  0  0.292952  0.279991  0  0.969026  0
H  H6  1  0.82455041  0.37997623  0.75493755  1  0.397634  0  0.283808  0.276625  0  0.981244  0
H  H7  1  0.03003786  0.36855216  0.79861899  1  0.43904  0  0.290597  0.285238  0  0.969671  0
H  H8  1  0.17536508  0.24503198  0.61998848  1  0.398241  0  0.283788  0.276601  0  0.981289  0
H  H9  1  0.96973093  0.20136583  0.63141343  1  0.43832  0  0.290619  0.285146  0  0.969584  0
H  H10  1  0.82435529  0.28662807  0.57833440  1  0.398796  0  0.28354  0.276325  0  0.981211  0
H  H11  1  0.02990431  0.29804563  0.53465483  1  0.438896  0  0.290639  0.285211  0  0.96943  0
H  H12  1  0.17557220  0.42160301  0.71332971  1  0.396918  0  0.283734  0.276608  0  0.981432  0
H  H13  1  0.97000144  0.46528973  0.70192251  1  0.438967  0  0.290561  0.285185  0  0.969545  0
H  H14  1  0.19877322  0.52183433  0.62668214  1  0.462329  0  0.296537  0.301202  0  0.98364  0
H  H15  1  0.23748254  0.52350851  0.68635278  1  0.41925  0  0.292995  0.279934  0  0.968953  0
H  H16  1  0.80120491  0.37332222  0.47814876  1  0.461187  0  0.296418  0.301218  0  0.983618  0
H  H17  1  0.76239249  0.31364285  0.47645687  1  0.420208  0  0.29291  0.27979  0  0.968973  0
H  H18  1  0.19818832  0.06179920  0.85515933  1  0.456794  0  0.296521  0.301365  0  0.983948  0
H  H19  1  0.23708443  0.00381341  0.85685464  1  0.428626  0  0.292732  0.27974  0  0.968781  0
H  H20  1  0.80075901  0.06183384  0.70665928  1  0.467603  0  0.296527  0.301175  0  0.98404  0
H  H21  1  0.76222920  0.00384508  0.64698398  1  0.433877  0  0.292954  0.279839  0  0.968993  0
H  H22  1  0.82452673  0.87496697  0.62001095  1  0.394873  0  0.28365  0.276433  0  0.981351  0
H  H23  1  0.02991286  0.93007467  0.63142761  1  0.438061  0  0.290452  0.285119  0  0.969668  0
H  H24  1  0.17545579  0.87493036  0.75495820  1  0.439659  0  0.283656  0.276563  0  0.981451  0
H  H25  1  0.96979811  0.93001352  0.79863546  1  0.432579  0  0.290582  0.285133  0  0.969687  0
H  H26  1  0.82426728  0.79170242  0.71335564  1  0.395058  0  0.28351  0.276257  0  0.981488  0
H  H27  1  0.02980533  0.73660884  0.70195116  1  0.437819  0  0.290469  0.284985  0  0.969517  0
H  H28  1  0.17555099  0.79172130  0.57836971  1  0.440183  0  0.283718  0.276648  0  0.981223  0
H  H29  1  0.97002163  0.73662816  0.53468163  1  0.433047  0  0.290552  0.285187  0  0.96955  0
H  H30  1  0.19878460  0.60485449  0.47815858  1  0.456998  0  0.296584  0.301326  0  0.983726  0
H  H31  1  0.23754605  0.66284054  0.47647238  1  0.428054  0  0.292836  0.279637  0  0.96912  0
H  H32  1  0.80117190  0.60483362  0.62668369  1  0.468304  0  0.29644  0.301204  0  0.983889  0
H  H33  1  0.76230956  0.66281349  0.68635713  1  0.433594  0  0.292941  0.279801  0  0.969028  0
H  H34  1  0.19823378  0.29332365  0.93817491  1  0.469427  0  0.296483  0.301114  0  0.983937  0
H  H35  1  0.23715903  0.35301010  0.99614702  1  0.434519  0  0.292986  0.280094  0  0.968768  0
H  H36  1  0.80079452  0.14481838  0.93820338  1  0.457071  0  0.2966  0.301493  0  0.983851  0
H  H37  1  0.76229306  0.14315205  0.99620388  1  0.428129  0  0.292887  0.279837  0  0.969112  0
H  H38  1  0.82449120  0.24506829  0.12506831  1  0.439278  0  0.28364  0.276404  0  0.98184  0
H  H39  1  0.02994647  0.20137513  0.06996591  1  0.433103  0  0.290449  0.285039  0  0.969368  0
H  H40  1  0.17543628  0.38002923  0.12504736  1  0.394958  0  0.283693  0.276567  0  0.981264  0
H  H41  1  0.96983526  0.36861200  0.06995438  1  0.438831  0  0.290584  0.285153  0  0.969599  0
H  H42  1  0.82427459  0.42167859  0.20829618  1  0.405184  0  0.283381  0.276132  0  0.9815  0
H  H43  1  0.02980475  0.46536362  0.26338971  1  0.433713  0  0.290643  0.285293  0  0.969363  0
H  H44  1  0.17560863  0.28667907  0.20829174  1  0.394537  0  0.283758  0.276726  0  0.981234  0
H  H45  1  0.97006855  0.29808078  0.26338701  1  0.437637  0  0.29052  0.285198  0  0.969516  0
H  H46  1  0.19882336  0.37332171  0.39515888  1  0.468511  0  0.29656  0.301357  0  0.983697  0
H  H47  1  0.23759139  0.31365750  0.33717461  1  0.434122  0  0.292978  0.280008  0  0.968812  0
H  H48  1  0.80119509  0.52186011  0.39516293  1  0.456393  0  0.296486  0.301342  0  0.983666  0
H  H49  1  0.76229929  0.52355538  0.33718253  1  0.428686  0  0.292799  0.279492  0  0.969459  0
C  C50  1  0.50003174  0.45850574  0.41699399  1  1.447281  0  0.261716  0.656226  0  4.034226  0
C  C51  1  0.50002275  0.45849802  0.54150491  1  1.463761  0  0.261673  0.656208  0  4.034228  0
C  C52  1  0.50000499  0.58301444  0.54150256  1  1.447329  0  0.261509  0.655939  0  4.034136  0
C  C53  1  0.49959632  0.20817661  0.79184515  1  1.462629  0  0.261192  0.655546  0  4.034891  0
C  C54  1  0.49959111  0.08364776  0.79182832  1  1.447372  0  0.261261  0.655917  0  4.034408  0
C  C55  1  0.49959499  0.20815314  0.91635738  1  1.447653  0  0.260773  0.655387  0  4.035003  0
C  C56  1  0.49978823  0.23716447  0.76282754  1  0.039746  0  -0.03115  -0.240129  0  3.927094  0
C  C57  1  0.34280753  0.21443873  0.71181295  1  0.400143  0  0.085711  0.185116  0  4.066557  0
C  C58  1  0.34294847  0.24264327  0.68425916  1  0.463643  0  0.069691  0.118334  0  4.074211  0
C  C59  1  0.49995783  0.29307087  0.70689741  1  0.06572  0  -0.02714  -0.053741  0  4.146946  0
C  C60  1  0.65680838  0.31571467  0.75733476  1  0.467107  0  0.069812  0.118376  0  4.07376  0
C  C61  1  0.65674398  0.28817781  0.78555504  1  0.4  0  0.085943  0.185324  0  4.065824  0
C  C62  1  0.49998648  0.32112526  0.67883390  1  -0.104814  0  -0.052829  -0.10799  0  4.164521  0
C  C63  1  0.49997456  0.34548896  0.65445972  1  -0.3388  0  -0.052501  -0.108014  0  4.164335  0
C  C64  1  0.49996748  0.37356037  0.62640807  1  0.073001  0  -0.027145  -0.053646  0  4.146193  0
C  C65  1  0.65685297  0.35091714  0.57596778  1  0.461353  0  0.069758  0.118398  0  4.073527  0
C  C66  1  0.65696331  0.37847036  0.54776070  1  0.398628  0  0.085937  0.185293  0  4.066083  0
C  C67  1  0.50000438  0.42948757  0.57050112  1  0.040879  0  -0.0312  -0.240394  0  3.927944  0
C  C68  1  0.34304488  0.45221743  0.62151739  1  0.40108  0  0.085642  0.185215  0  4.065939  0
C  C69  1  0.34310556  0.42399929  0.64905797  1  0.461732  0  0.069948  0.118501  0  4.073611  0
C  C70  1  0.49974237  0.02564462  0.76283357  1  0.127415  0  -0.031153  -0.240406  0  3.927348  0
C  C71  1  0.34276843  0.99734995  0.78555324  1  0.447973  0  0.085708  0.185321  0  4.066837  0
C  C72  1  0.34292210  0.94159709  0.75734706  1  0.364532  0  0.069556  0.118217  0  4.074183  0
C  C73  1  0.49992274  0.91381651  0.70691777  1  0.096512  0  -0.026987  -0.053667  0  4.146295  0
C  C74  1  0.65669825  0.94161587  0.68427369  1  0.428264  0  0.069864  0.118415  0  4.073785  0
C  C75  1  0.65670280  0.99737004  0.71181799  1  0.351018  0  0.085948  0.185309  0  4.065458  0
C  C76  1  0.49993097  0.85769588  0.67885183  1  -0.473606  0  -0.052766  -0.107891  0  4.164504  0
C  C77  1  0.49995411  0.80896434  0.65448678  1  0.068799  0  -0.05261  -0.108116  0  4.164372  0
C  C78  1  0.49993172  0.75284089  0.62642436  1  0.139405  0  -0.027232  -0.05365  0  4.145975  0
C  C79  1  0.65677995  0.72504910  0.64907569  1  0.346841  0  0.069775  0.118256  0  4.073611  0
C  C80  1  0.65688514  0.66929254  0.62152622  1  0.438274  0  0.085819  0.185241  0  4.065868  0
C  C81  1  0.49997113  0.64101752  0.57050836  1  0.127469  0  -0.031263  -0.240331  0  3.927689  0
C  C82  1  0.34301568  0.66930331  0.54777477  1  0.446628  0  0.085856  0.185387  0  4.066117  0
C  C83  1  0.34310445  0.72505744  0.57598380  1  0.367357  0  0.069876  0.118481  0  4.073454  0
C  C84  1  0.49973160  0.23717065  0.97435926  1  0.123982  0  -0.031084  -0.240043  0  3.927199  0
C  C85  1  0.34279359  0.28818899  0.00263810  1  0.402347  0  0.085801  0.18513  0  4.066591  0
C  C86  1  0.34296856  0.31574929  0.05839297  1  0.380237  0  0.069677  0.118376  0  4.074102  0
C  C87  1  0.49992116  0.29310881  0.08618768  1  0.138798  0  -0.027064  -0.053579  0  4.146484  0
C  C88  1  0.65673710  0.24266747  0.05840487  1  0.312967  0  0.069716  0.118111  0  4.07392  0
C  C89  1  0.65670764  0.21444531  0.00265131  1  0.506302  0  0.085833  0.185481  0  4.065979  0
C  C90  1  0.49995318  0.32117816  0.14230714  1  -0.332736  0  -0.052818  -0.108299  0  4.164317  0
C  C91  1  0.49997004  0.34554730  0.19104094  1  -0.121075  0  -0.052524  -0.107724  0  4.163485  0
C  C92  1  0.49995868  0.37360463  0.24716624  1  0.143058  0  -0.027395  -0.053825  0  4.14607  0
C  C93  1  0.65681753  0.42404129  0.27495000  1  0.368823  0  0.069836  0.118189  0  4.073785  0
C  C94  1  0.65695672  0.45224739  0.33070931  1  0.445406  0  0.086037  0.185736  0  4.065894  0
C  C95  1  0.50000486  0.42950928  0.35898894  1  0.127784  0  -0.031248  -0.240508  0  3.927638  0
C  C96  1  0.34306438  0.37849563  0.33071194  1  0.350682  0  0.085764  0.185161  0  4.066029  0
C  C97  1  0.34311400  0.35095110  0.27495299  1  0.429368  0  0.069958  0.118613  0  4.073271  0
N  N98  1  0.18560668  0.16492788  0.68648935  1  -1.212879  0  -0.604994  -0.609119  0  3.34632  0
N  N99  1  0.81376278  0.31351345  0.83508013  1  -1.207849  0  -0.60532  -0.609589  0  3.346724  0
N  N100  1  0.79965919  0.36685654  0.78135799  1  -1.194996  0  -0.615145  -0.619769  0  3.293856  0
N  N101  1  0.20015955  0.21861684  0.63311549  1  -1.195365  0  -0.615012  -0.619542  0  3.293812  0
N  N102  1  0.79953342  0.29976615  0.55192871  1  -1.195967  0  -0.614877  -0.619442  0  3.293653  0
N  N103  1  0.20037597  0.44802019  0.70020601  1  -1.194003  0  -0.615103  -0.619818  0  3.294073  0
N  N104  1  0.18600440  0.50173902  0.64686079  1  -1.208584  0  -0.605032  -0.609129  0  3.346153  0
N  N105  1  0.81396381  0.35313214  0.49823307  1  -1.207628  0  -0.604975  -0.609112  0  3.346197  0
N  N106  1  0.18559896  0.02152913  0.83507180  1  -1.231314  0  -0.604619  -0.609053  0  3.346517  0
N  N107  1  0.81367441  0.02156340  0.68647856  1  -1.233392  0  -0.605235  -0.609187  0  3.346404  0
N  N108  1  0.79955818  0.91450512  0.63313267  1  -1.181296  0  -0.614885  -0.619508  0  3.293929  0
N  N109  1  0.20020811  0.91447000  0.78137267  1  -1.226273  0  -0.614817  -0.619482  0  3.293837  0
N  N110  1  0.79944873  0.75216323  0.70022686  1  -1.182235  0  -0.614587  -0.61901  0  3.293847  0
N  N111  1  0.20038926  0.75218243  0.55195568  1  -1.226829  0  -0.614971  -0.619787  0  3.293573  0
N  N112  1  0.18601977  0.64512366  0.49824914  1  -1.231537  0  -0.604973  -0.609016  0  3.346542  0
N  N113  1  0.81388886  0.64510698  0.64686897  1  -1.233667  0  -0.604985  -0.60912  0  3.346455  0
N  N114  1  0.18564390  0.31351923  0.97844918  1  -1.234026  0  -0.604892  -0.609103  0  3.346517  0
N  N115  1  0.81370429  0.16491861  0.97847324  1  -1.231608  0  -0.605031  -0.609409  0  3.346852  0
N  N116  1  0.79957207  0.21864642  0.08552979  1  -1.226722  0  -0.614828  -0.619354  0  3.293749  0
N  N117  1  0.20023964  0.36689603  0.08550403  1  -1.182253  0  -0.614957  -0.619588  0  3.293914  0
N  N118  1  0.79945766  0.44808492  0.24783735  1  -1.193325  0  -0.614646  -0.619226  0  3.293957  0
N  N119  1  0.20042394  0.29980181  0.24783301  1  -1.18038  0  -0.615065  -0.619968  0  3.293841  0
N  N120  1  0.18607181  0.35314661  0.35488759  1  -1.234246  0  -0.605119  -0.609383  0  3.346439  0
N  N121  1  0.81391512  0.50177424  0.35488962  1  -1.231228  0  -0.604992  -0.609082  0  3.346934  0
O  O122  1  0.73238978  0.55799645  0.55176492  1  -1.271061  0  -0.244694  -0.609088  0  2.397973  0
O  O123  1  0.73240536  0.49378152  0.44200641  1  -1.267941  0  -0.244701  -0.609339  0  2.398133  0
O  O124  1  0.73240365  0.44823834  0.50622847  1  -1.270634  0  -0.24476  -0.60921  0  2.398111  0
O  O125  1  0.26766638  0.55799593  0.50621631  1  -1.267751  0  -0.244689  -0.609232  0  2.397945  0
O  O126  1  0.26767582  0.49378495  0.55177251  1  -1.270938  0  -0.244817  -0.609392  0  2.398055  0
O  O127  1  0.26768517  0.44823397  0.44201064  1  -1.270891  0  -0.244777  -0.609183  0  2.397883  0
O  O128  1  0.73189839  0.17285847  0.89133628  1  -1.267607  0  -0.244724  -0.609348  0  2.397822  0
O  O129  1  0.73186948  0.21844750  0.82714261  1  -1.270566  0  -0.244983  -0.609202  0  2.397813  0
O  O130  1  0.73189355  0.10867313  0.78156331  1  -1.270711  0  -0.244828  -0.609115  0  2.397808  0
O  O131  1  0.26719564  0.21840701  0.89133604  1  -1.271748  0  -0.244151  -0.608861  0  2.398538  0
O  O132  1  0.26719146  0.10866749  0.82710518  1  -1.267701  0  -0.244427  -0.609181  0  2.398205  0
O  O133  1  0.26716926  0.17290339  0.78158661  1  -1.27041  0  -0.244205  -0.608798  0  2.39837  0
