# generated using pymatgen
data_Al6H42C84Br13O28F13
_symmetry_space_group_name_H-M   'P 1'
_cell_length_a   13.70191674
_cell_length_b   13.74583915
_cell_length_c   28.06104602
_cell_angle_alpha   90.37682802
_cell_angle_beta   90.05031300
_cell_angle_gamma   119.27282745
_symmetry_Int_Tables_number   1
_chemical_formula_structural   Al6H42C84Br13O28F13
_chemical_formula_sum   'Al6 H42 C84 Br13 O28 F13'
_cell_volume   4610.08320246
_cell_formula_units_Z   1
loop_
 _symmetry_equiv_pos_site_id
 _symmetry_equiv_pos_as_xyz
  1  'x, y, z'
loop_
 _atom_site_type_symbol
 _atom_site_label
 _atom_site_symmetry_multiplicity
 _atom_site_fract_x
 _atom_site_fract_y
 _atom_site_fract_z
 _atom_site_occupancy
 _atom_site_pbe_bader_charge
 _atom_site_pbe_bader_spin_density
 _atom_site_pbe_cm5_charge
 _atom_site_pbe_ddec_charge
 _atom_site_pbe_ddec_spin_density
 _atom_site_pbe_ddec_sum_bond_order
 _atom_site_pbe_magmom
Al  Al0  1  0.41751754  0.58784374  0.50255657  1  2.492227  0  0.401207  1.683505  0  2.552809  0
Al  Al1  1  0.64274653  0.56952939  0.49946068  1  2.478603  0  0.5091  1.65629  0  2.517662  0
Al  Al2  1  0.42380226  0.35740049  0.50139769  1  2.481239  0  0.508759  1.656982  0  2.515788  0
Al  Al3  1  0.92104611  0.07953677  0.99697466  1  2.494383  0  0.400618  1.681867  0  2.558066  0
Al  Al4  1  0.90854417  0.30706634  0.00262917  1  2.477339  0  0.507671  1.657019  0  2.519526  0
Al  Al5  1  0.69232435  0.09143661  0.00111572  1  2.480176  0  0.508502  1.657683  0  2.513315  0
H  H6  1  0.79230346  0.51034268  0.78293793  1  0.110832  0  0.109004  0.116278  0  0.979342  0
H  H7  1  0.64912739  0.00395967  0.77976031  1  0.084621  0  0.098682  0.125362  0  0.978151  0
H  H8  1  0.78644916  0.02563310  0.77037481  1  0.130678  0  0.090977  0.119932  0  1.039525  0
H  H9  1  0.72377850  0.73394671  0.79216386  1  0.131289  0  0.106406  0.114042  0  0.980296  0
H  H10  1  0.58005045  0.65566564  0.72769159  1  0.122174  0  0.086412  0.078041  0  1.061497  0
H  H11  1  0.53186903  0.68921758  0.80167188  1  0.111855  0  0.110658  0.111821  0  0.950532  0
H  H12  1  0.49443905  0.29723252  0.19127450  1  0.061828  0  0.096178  0.117312  0  0.989278  0
H  H13  1  0.46539693  0.26833549  0.27356738  1  0.084061  0  0.0991  0.056075  0  0.986255  0
H  H14  1  0.69792632  0.21727364  0.29917456  1  0.048925  0  0.092414  0.091522  0  0.987685  0
H  H15  1  0.55039921  0.15576954  0.29761843  1  0.073445  0  0.104917  0.114166  0  0.962809  0
H  H16  1  0.54635277  0.14531885  0.21400727  1  0.065575  0  0.093205  0.102057  0  0.99973  0
H  H17  1  0.05819991  0.14452826  0.79252315  1  0.09115  0  0.101036  0.065972  0  0.997673  0
H  H18  1  0.68729035  0.17806198  0.21725177  1  0.043867  0  0.078144  0.078394  0  1.043659  0
H  H19  1  0.81956342  0.41591074  0.29949325  1  0.066689  0  0.089844  0.041193  0  1.015669  0
H  H20  1  0.50885668  0.21563852  0.78353999  1  0.092125  0  0.113863  0.120168  0  0.96439  0
H  H21  1  0.59963045  0.43788970  0.20063382  1  0.120851  0  0.09465  0.119698  0  1.018542  0
H  H22  1  0.83866836  0.38689924  0.21976428  1  0.074293  0  0.085583  0.040833  0  1.036494  0
H  H23  1  0.28845222  0.52217953  0.28283658  1  0.087237  0  0.105853  0.149434  0  0.971181  0
H  H24  1  0.00940042  0.25449015  0.29840047  1  0.112167  0  0.101855  0.091951  0  0.985831  0
H  H25  1  0.07408511  0.42426927  0.22094704  1  0.144901  0  0.100152  0.100191  0  1.022596  0
H  H26  1  0.59223652  0.13964802  0.70778077  1  0.088514  0  0.102623  0.101871  0  0.992871  0
H  H27  1  0.12527361  0.16325584  0.29783112  1  0.089734  0  0.111277  0.073899  0  0.939216  0
H  H28  1  0.14501112  0.47409933  0.69644713  1  0.105093  0  0.109169  0.136224  0  0.961446  0
H  H29  1  0.36660090  0.45117535  0.27789740  1  0.154192  0  0.109879  0.159434  0  0.983916  0
H  H30  1  0.06006059  0.15369263  0.22141779  1  0.074866  0  0.101343  0.101626  0  0.992323  0
H  H31  1  0.81134383  0.00753816  0.30615646  1  0.045771  0  0.101998  0.117917  0  0.968791  0
H  H32  1  0.85626346  0.90667049  0.30295608  1  0.124482  0  0.117086  0.15222  0  0.947395  0
H  H33  1  0.80126705  0.22876539  0.75523465  1  0.088105  0  0.094831  0.095929  0  1.049593  0
H  H34  1  0.84293512  0.02905426  0.22434001  1  0.069651  0  0.080067  0.024519  0  1.073982  0
H  H35  1  0.60365242  0.94647410  0.31102837  1  0.081829  0  0.11128  0.074827  0  0.93748  0
H  H36  1  0.67505226  0.01221451  0.23696060  1  0.063931  0  0.10147  0.091946  0  0.998749  0
H  H37  1  0.26461243  0.29318001  0.79739906  1  0.046481  0  0.095824  0.10137  0  0.978815  0
H  H38  1  0.31901824  0.33419504  0.71778015  1  0.044836  0  0.076028  0.081993  0  1.067975  0
H  H39  1  0.01470685  0.34889855  0.69798253  1  0.060706  0  0.099552  0.11216  0  0.984527  0
H  H40  1  0.00587892  0.16257738  0.69751463  1  0.149415  0  0.10119  0.10454  0  0.999393  0
H  H41  1  0.32023796  0.46358815  0.72067843  1  0.067955  0  0.076457  0.085127  0  1.051035  0
H  H42  1  0.30268286  0.43561762  0.80345747  1  0.076211  0  0.099262  0.112107  0  0.970814  0
H  H43  1  0.01557447  0.39593287  0.77877615  1  0.095093  0  0.104391  0.059474  0  0.960181  0
H  H44  1  0.87459426  0.43429224  0.70746320  1  0.100096  0  0.108403  0.106476  0  0.97532  0
H  H45  1  0.58181129  0.91435931  0.70523036  1  0.09494  0  0.097731  0.085269  0  1.00144  0
H  H46  1  0.34003223  0.69442993  0.53316915  1  0.588058  0  0.293358  0.385815  0  0.918852  0
H  H47  1  0.00926138  0.97975682  0.02279125  1  0.589157  0  0.296759  0.390021  0  0.912531  0
C  C48  1  0.62198269  0.70760813  0.56664301  1  1.680487  0  0.280555  0.716005  0  4.146677  0
C  C49  1  0.65781402  0.35044918  0.64915386  1  -0.339677  0  -0.015991  -0.009346  0  4.056824  0
C  C50  1  0.27184506  0.37494477  0.72971544  1  -0.032778  0  -0.174802  -0.209256  0  3.864138  0
C  C51  1  0.60385973  0.39483586  0.56446090  1  1.677544  0  0.285808  0.725224  0  4.142857  0
C  C52  1  0.08314723  0.20427266  0.71862722  1  -0.051598  0  -0.068974  -0.06634  0  3.686517  0
C  C53  1  0.05286559  0.20817950  0.77110827  1  0.487823  0  0.0295  0.154044  0  3.76135  0
C  C54  1  0.08140583  0.30803423  0.88602044  1  0.192986  0  -0.037921  -0.194947  0  3.949841  0
C  C55  1  0.16054640  0.32402662  0.70111330  1  0.128085  0  -0.001233  0.165173  0  3.891694  0
C  C56  1  0.24900504  0.35886457  0.78345648  1  -0.049065  0  -0.155864  -0.180999  0  3.859733  0
C  C57  1  0.12518340  0.32534321  0.79327272  1  0.144673  0  -0.00451  0.040637  0  3.921834  0
C  C58  1  0.09665903  0.40701432  0.76689838  1  0.482346  0  0.028596  0.195612  0  3.79259  0
C  C59  1  0.63638199  0.36706009  0.60880944  1  0.086755  0  -0.03733  -0.198449  0  3.945995  0
C  C60  1  0.09987661  0.39156361  0.71294512  1  -0.066528  0  -0.155325  -0.28496  0  3.845463  0
C  C61  1  0.10330742  0.32086847  0.84387522  1  -0.470299  0  -0.016834  -0.011415  0  4.023317  0
C  C62  1  0.18936257  0.33200986  0.65103527  1  -0.330225  0  -0.01936  -0.013811  0  3.991438  0
C  C63  1  0.29146875  0.38739524  0.56771460  1  1.689869  0  0.278229  0.718627  0  4.151123  0
C  C64  1  0.22788593  0.35185298  0.61105582  1  0.057342  0  -0.042333  -0.201056  0  3.941124  0
C  C65  1  0.56737877  0.72860272  0.72661084  1  -0.029193  0  -0.074013  -0.025898  0  3.690986  0
C  C66  1  0.66762992  0.93321157  0.71334094  1  -0.00064  0  -0.068737  0.034366  0  3.701205  0
C  C67  1  0.69740525  0.96607744  0.76565492  1  -0.077745  0  -0.171592  -0.259681  0  3.852313  0
C  C68  1  0.68246459  0.90796108  0.88722732  1  -0.119442  0  -0.029998  -0.171396  0  3.917396  0
C  C69  1  0.67308268  0.82512118  0.70194663  1  0.104436  0  -0.008996  0.030905  0  3.882301  0
C  C70  1  0.75254774  0.27140584  0.75063574  1  -0.015078  0  -0.069977  -0.083554  0  3.609344  0
C  C71  1  0.55568689  0.76108975  0.77844179  1  -0.048213  0  -0.069321  -0.033369  0  3.69503  0
C  C72  1  0.67041496  0.85978106  0.79475994  1  0.141212  0  -0.001018  0.148614  0  3.862471  0
C  C73  1  0.75788624  0.82136468  0.78196084  1  -0.040137  0  -0.080165  -0.1194  0  3.738235  0
C  C74  1  0.77789798  0.83173013  0.72779530  1  0.56859  0  0.10592  0.27963  0  3.739288  0
C  C75  1  0.61480647  0.70842745  0.43628080  1  1.709527  0  0.283576  0.711598  0  4.154131  0
C  C76  1  0.67219693  0.88267020  0.84527782  1  -0.097614  0  -0.030285  -0.034059  0  4.036347  0
C  C77  1  0.67184433  0.80178794  0.65165820  1  -0.142823  0  -0.043259  -0.039043  0  4.111788  0
C  C78  1  0.65908929  0.76941455  0.61067211  1  -0.03963  0  -0.029298  -0.163912  0  3.921588  0
C  C79  1  0.54523412  0.34275482  0.26523946  1  0.505958  0  0.032399  0.200395  0  3.776718  0
C  C80  1  0.62797564  0.22178509  0.28206230  1  -0.086353  0  -0.150054  -0.183331  0  3.854863  0
C  C81  1  0.70639143  0.31362956  0.79360492  1  0.12328  0  0.011302  0.12704  0  3.778388  0
C  C82  1  0.62891703  0.20767819  0.22743480  1  -0.033979  0  -0.158706  -0.197266  0  3.85197  0
C  C83  1  0.69543041  0.29247399  0.11027585  1  0.26149  0  -0.042418  -0.216992  0  3.933597  0
C  C84  1  0.63874197  0.33699492  0.29445873  1  0.107682  0  -0.005184  0.030593  0  3.914606  0
C  C85  1  0.57047002  0.35156247  0.21168843  1  -0.048593  0  -0.159841  -0.27642  0  3.824921  0
C  C86  1  0.66240617  0.31969522  0.20193882  1  0.150396  0  -0.001557  0.118787  0  3.896781  0
C  C87  1  0.59272020  0.39140871  0.43382000  1  1.643652  0  0.289527  0.733811  0  4.129921  0
C  C88  1  0.77326189  0.41038967  0.22431505  1  0.505256  0  0.023823  0.107814  0  3.790177  0
C  C89  1  0.75708565  0.42562258  0.27836962  1  0.536658  0  0.027531  0.119444  0  3.803243  0
C  C90  1  0.67815397  0.30722947  0.15148911  1  -0.497998  0  -0.000579  0.023334  0  3.957416  0
C  C91  1  0.62426513  0.34880581  0.34500338  1  -0.33777  0  -0.001381  0.023691  0  3.984957  0
C  C92  1  0.63652541  0.22156855  0.72494485  1  -0.011662  0  -0.068059  -0.06791  0  3.622944  0
C  C93  1  0.61330011  0.36233042  0.38711307  1  0.141717  0  -0.039434  -0.20997  0  3.928391  0
C  C94  1  0.28569295  0.44558900  0.26981261  1  -0.036805  0  -0.164033  -0.325521  0  3.808006  0
C  C95  1  0.07536020  0.33401426  0.28462767  1  -0.02334  0  -0.072864  -0.03643  0  3.744711  0
C  C96  1  0.06407458  0.34297601  0.23075921  1  -0.045903  0  -0.069425  -0.019342  0  3.694343  0
C  C97  1  0.10062754  0.30317509  0.11129703  1  0.120094  0  -0.024538  -0.155297  0  3.920561  0
C  C98  1  0.19102932  0.34455000  0.29604364  1  0.112645  0  -0.001956  0.107896  0  3.896533  0
C  C99  1  0.29638840  0.39577806  0.43461701  1  1.685361  0  0.284831  0.711754  0  4.156694  0
C  C100  1  0.26751999  0.43194171  0.21578496  1  0.557826  0  0.116229  0.329681  0  3.702041  0
C  C101  1  0.15381966  0.32610288  0.20313591  1  0.145316  0  -0.009353  0.030058  0  3.903718  0
C  C102  1  0.14824992  0.21846309  0.22384106  1  -0.022164  0  -0.076725  -0.063949  0  3.716966  0
C  C103  1  0.67758525  0.33525569  0.69729765  1  0.104083  0  0.008574  0.087714  0  3.780443  0
C  C104  1  0.18441352  0.23505089  0.27664497  1  0.520862  0  0.02931  0.142682  0  3.808489  0
C  C105  1  0.13023508  0.31603205  0.15260951  1  -0.325583  0  -0.042663  -0.046474  0  4.113505  0
C  C106  1  0.21571254  0.35551806  0.34663387  1  -0.5043  0  -0.026548  -0.032605  0  4.027784  0
C  C107  1  0.24462609  0.36827229  0.38810241  1  0.292693  0  -0.024843  -0.164573  0  3.918963  0
C  C108  1  0.65090283  0.72991012  0.27316226  1  1.180518  0  0.202382  0.383005  0  3.885947  0
C  C109  1  0.79468964  0.92853057  0.28916530  1  -0.053263  0  -0.157451  -0.278999  0  3.862541  0
C  C110  1  0.80779123  0.94146075  0.23478958  1  0.513953  0  0.020722  0.184895  0  3.815139  0
C  C111  1  0.79353894  0.38510849  0.72469088  1  -0.037032  0  -0.06754  -0.067519  0  3.617542  0
C  C112  1  0.71402614  0.92768659  0.11731132  1  0.045326  0  -0.02648  -0.162209  0  3.920581  0
C  C113  1  0.67534702  0.83678886  0.30255546  1  0.131287  0  -0.006579  0.001021  0  3.933585  0
C  C114  1  0.59022686  0.26314986  0.76645447  1  -0.022131  0  -0.068515  -0.109068  0  3.626038  0
C  C115  1  0.63943664  0.74785531  0.21860019  1  0.565397  0  0.098638  0.16218  0  3.771215  0
C  C116  1  0.69182831  0.87510961  0.20913168  1  0.111633  0  -0.010219  0.007307  0  3.894228  0
C  C117  1  0.62124164  0.92128018  0.23535616  1  -0.013157  0  -0.072758  -0.059768  0  3.704723  0
C  C118  1  0.59339832  0.87832760  0.28705811  1  0.552609  0  0.027419  0.149907  0  3.834497  0
C  C119  1  0.70268454  0.90056032  0.15881558  1  -0.267065  0  -0.038371  -0.034309  0  4.086176  0
C  C120  1  0.66376945  0.80760257  0.35250694  1  -0.440576  0  -0.026457  -0.021794  0  4.027631  0
C  C121  1  0.64841384  0.77134736  0.39268883  1  0.189471  0  -0.023778  -0.162279  0  3.916046  0
C  C122  1  0.03442107  0.27584701  0.93280460  1  1.679635  0  0.282288  0.715201  0  4.158043  0
C  C123  1  0.74822650  0.42777599  0.76631769  1  -0.042181  0  -0.069829  -0.114292  0  3.626268  0
C  C124  1  0.74144328  0.26559271  0.93369526  1  1.663316  0  0.283607  0.723174  0  4.153503  0
C  C125  1  0.63230448  0.37661295  0.74109303  1  0.022153  0  0.003977  0.094449  0  3.619343  0
C  C126  1  0.71479235  0.95843084  0.93389961  1  1.661896  0  0.284449  0.712469  0  4.152118  0
C  C127  1  0.04419562  0.27578019  0.06587551  1  1.678076  0  0.282143  0.715315  0  4.148072  0
C  C128  1  0.72668001  0.26578830  0.06525491  1  1.640187  0  0.287717  0.731252  0  4.135681  0
C  C129  1  0.73608789  0.97119662  0.06954658  1  1.692792  0  0.28101  0.719193  0  4.142858  0
C  C130  1  0.72464282  0.28862249  0.88555311  1  0.235653  0  -0.038966  -0.203254  0  3.956839  0
C  C131  1  0.71839473  0.30098676  0.84288169  1  -0.51018  0  -0.012497  -0.008471  0  4.039787  0
Br  Br132  1  0.15177925  0.10836368  0.71080199  1  -0.110556  0  -0.001569  -0.089788  0  1.308519  0
Br  Br133  1  0.91112959  0.23741378  0.20900816  1  -0.120274  0  0.06513  -0.040959  0  1.532723  0
Br  Br134  1  0.22266495  0.15494504  0.18586555  1  -0.039354  0  0.023088  -0.046108  0  1.322906  0
Br  Br135  1  0.70228661  0.67586988  0.17892343  1  0.012649  0  0.054971  -0.027647  0  1.419993  0
Br  Br136  1  0.48999459  0.90359223  0.20100623  1  -0.035607  0  0.033401  -0.036827  0  1.393929  0
Br  Br137  1  0.43746427  0.80002701  0.79003528  1  -0.077869  0  0.014679  -0.07445  0  1.375479  0
Br  Br138  1  0.43329120  0.67658934  0.68714769  1  -0.058551  0  0.052806  -0.018652  0  1.48086  0
Br  Br139  1  0.75653295  0.05730461  0.66977445  1  -0.106621  0  0.015812  -0.075446  0  1.349166  0
Br  Br140  1  0.81172956  0.71527583  0.70548929  1  -0.0766  0  0.015863  -0.105262  0  1.364368  0
Br  Br141  1  0.54194167  0.44672997  0.73493936  1  -0.08784  0  0.03767  -0.072262  0  1.530191  0
Br  Br142  1  0.89788516  0.89880405  0.81749051  1  -0.031176  0  0.044577  -0.014703  0  1.38341  0
Br  Br143  1  0.27094017  0.56543554  0.18763807  1  -0.060601  0  0.024228  -0.09152  0  1.357104  0
Br  Br144  1  0.05135239  0.44644574  0.31801477  1  -0.0824  0  0.036569  -0.048697  0  1.309436  0
O  O145  1  0.32375004  0.48604129  0.55435695  1  -1.221884  0  -0.211856  -0.569054  0  2.289691  0
O  O146  1  0.66923219  0.17204137  0.95102913  1  -1.249425  0  -0.226583  -0.588254  0  2.24866  0
O  O147  1  0.64338282  0.97707703  0.95646453  1  -1.251159  0  -0.239381  -0.598707  0  2.221239  0
O  O148  1  0.52502399  0.68324781  0.55263298  1  -1.220729  0  -0.208118  -0.56495  0  2.300928  0
O  O149  1  0.82746369  0.98984351  0.05108005  1  -1.219191  0  -0.206801  -0.557724  0  2.284723  0
O  O150  1  0.02373414  0.18460408  0.04669476  1  -1.213679  0  -0.205199  -0.55575  0  2.288429  0
O  O151  1  0.01472996  0.34589248  0.05051946  1  -1.249303  0  -0.235704  -0.592385  0  2.228982  0
O  O152  1  0.82388665  0.33373618  0.04939922  1  -1.23898  0  -0.221914  -0.58351  0  2.245151  0
O  O153  1  0.65722144  0.17303457  0.04542510  1  -1.250451  0  -0.22595  -0.589504  0  2.238775  0
O  O154  1  0.66166130  0.99087711  0.05090965  1  -1.250104  0  -0.237776  -0.598497  0  2.233243  0
O  O155  1  0.83984357  0.16002029  0.00074215  1  -1.60815  0  -0.39169  -1.276071  0  2.298915  0
O  O156  1  0.66506002  0.48649110  0.45065902  1  -1.249458  0  -0.223496  -0.584436  0  2.238395  0
O  O157  1  0.68875160  0.67847162  0.54701128  1  -1.246769  0  -0.236168  -0.592431  0  2.234227  0
O  O158  1  0.67391626  0.48669798  0.54494834  1  -1.249171  0  -0.226144  -0.587848  0  2.244601  0
O  O159  1  0.50555282  0.32799958  0.54871479  1  -1.244456  0  -0.224425  -0.584735  0  2.242573  0
O  O160  1  0.31373458  0.31614588  0.54716883  1  -1.251101  0  -0.240308  -0.601768  0  2.227584  0
O  O161  1  0.32108657  0.49021005  0.45155778  1  -1.212009  0  -0.195486  -0.524633  0  2.273108  0
O  O162  1  0.51921832  0.68276552  0.45196264  1  -1.209673  0  -0.197708  -0.533704  0  2.282106  0
O  O163  1  0.68443642  0.68042193  0.45389345  1  -1.255446  0  -0.237028  -0.597754  0  2.231417  0
O  O164  1  0.50150912  0.32276926  0.45437176  1  -1.24924  0  -0.226443  -0.589952  0  2.241131  0
O  O165  1  0.31645708  0.32224047  0.45355574  1  -1.252773  0  -0.238099  -0.599859  0  2.239734  0
O  O166  1  0.49558421  0.50445646  0.50123412  1  -1.615917  0  -0.390971  -1.274667  0  2.295226  0
O  O167  1  0.81209687  0.98454934  0.94767657  1  -1.207102  0  -0.195063  -0.532221  0  2.288253  0
O  O168  1  0.00747840  0.17794433  0.94541376  1  -1.215746  0  -0.200523  -0.536209  0  2.28215  0
O  O169  1  0.01967122  0.34780023  0.95686103  1  -1.257971  0  -0.240734  -0.6051  0  2.238231  0
O  O170  1  0.83030729  0.33839344  0.95502295  1  -1.244277  0  -0.22777  -0.58911  0  2.243772  0
O  O171  1  0.34467061  0.66257600  0.50303839  1  -1.366793  0  -0.573291  -0.991176  0  1.793466  0
O  O172  1  0.99305415  0.00435776  0.99311227  1  -1.368906  0  -0.574694  -0.99457  0  1.79093  0
F  F173  1  0.93883112  0.18301808  0.77296697  1  -0.639173  0  -0.122369  -0.194184  0  1.333469  0
F  F174  1  0.88381986  0.90809833  0.21872411  1  -0.624857  0  -0.133542  -0.174506  0  1.288353  0
F  F175  1  0.48340742  0.79317460  0.29195823  1  -0.615089  0  -0.127787  -0.161108  0  1.332245  0
F  F176  1  0.55555142  0.63943875  0.28839076  1  -0.611415  0  -0.091764  -0.149481  0  1.401748  0
F  F177  1  0.52686280  0.69800180  0.20777179  1  -0.606446  0  -0.108732  -0.145049  0  1.487915  0
F  F178  1  0.17699181  0.51722728  0.78000620  1  -0.626372  0  -0.146231  -0.203837  0  1.255101  0
F  F179  1  0.86935708  0.93245669  0.71608207  1  -0.624449  0  -0.10373  -0.149762  0  1.454253  0
F  F180  1  0.77476527  0.53271629  0.28723186  1  -0.606808  0  -0.12924  -0.156891  0  1.334567  0
F  F181  1  0.80976431  0.51116235  0.20044437  1  -0.615463  0  -0.13285  -0.167085  0  1.31522  0
F  F182  1  0.53360962  0.43453238  0.27996719  1  -0.622551  0  -0.132368  -0.187484  0  1.327642  0
F  F183  1  0.28949661  0.24370074  0.28322388  1  -0.623361  0  -0.116663  -0.161623  0  1.367719  0
F  F184  1  0.35277589  0.42122626  0.19438291  1  -0.611573  0  -0.106679  -0.152431  0  1.339932  0
F  F185  1  0.73758550  0.70926956  0.28122399  1  -0.609253  0  -0.094046  -0.157774  0  1.402762  0
