# generated using pymatgen
data_Zn2H22C27(N4O5)2
_symmetry_space_group_name_H-M   'P 1'
_cell_length_a   9.80826165
_cell_length_b   11.10290742
_cell_length_c   22.23043554
_cell_angle_alpha   90.01590294
_cell_angle_beta   90.32859846
_cell_angle_gamma   90.41702921
_symmetry_Int_Tables_number   1
_chemical_formula_structural   Zn2H22C27(N4O5)2
_chemical_formula_sum   'Zn4 H44 C54 N16 O20'
_cell_volume   2420.79528172
_cell_formula_units_Z   2
loop_
 _symmetry_equiv_pos_site_id
 _symmetry_equiv_pos_as_xyz
  1  'x, y, z'
loop_
 _atom_site_type_symbol
 _atom_site_label
 _atom_site_symmetry_multiplicity
 _atom_site_fract_x
 _atom_site_fract_y
 _atom_site_fract_z
 _atom_site_occupancy
 _atom_site_pbe_bader_charge
 _atom_site_pbe_bader_spin_density
 _atom_site_pbe_cm5_charge
 _atom_site_pbe_ddec_charge
 _atom_site_pbe_ddec_spin_density
 _atom_site_pbe_ddec_sum_bond_order
 _atom_site_pbe_magmom
Zn  Zn0  1  0.64675515  0.49649276  0.49583983  1  1.285826  0  0.6758  0.828741  0  2.397772  0
Zn  Zn1  1  0.35623337  0.49771812  0.50316279  1  1.281113  0  0.674936  0.831478  0  2.36917  0
Zn  Zn2  1  0.35113336  0.50632050  0.99219140  1  1.285171  0  0.674347  0.829836  0  2.400354  0
Zn  Zn3  1  0.64051879  0.51255675  0.99826746  1  1.282775  0  0.670745  0.824035  0  2.366298  0
H  H4  1  0.12057742  0.59784720  0.63421050  1  0.086468  0  0.100598  0.121369  0  0.977351  0
H  H5  1  0.13140236  0.72279570  0.58404645  1  0.087591  0  0.098926  0.115685  0  1.020551  0
H  H6  1  0.87402345  0.72897728  0.57804965  1  0.084803  0  0.098047  0.117416  0  0.998437  0
H  H7  1  0.86459122  0.60382694  0.62841488  1  0.090945  0  0.101059  0.123459  0  0.984212  0
H  H8  1  0.17180641  0.87878202  0.47169636  1  0.046723  0  0.085038  0.089638  0  0.993968  0
H  H9  1  0.19670460  0.88402099  0.55137351  1  0.023328  0  0.091437  0.098652  0  1.014447  0
H  H10  1  0.19286298  0.10905522  0.54864910  1  0.040905  0  0.091259  0.101112  0  0.982204  0
H  H11  1  0.17437466  0.10423914  0.46878007  1  -0.006537  0  0.078991  0.073727  0  1.033149  0
H  H12  1  0.59566599  0.30822540  0.86028225  1  0.094955  0  0.107018  0.117533  0  1.011269  0
H  H13  1  0.68448126  0.13278451  0.80518628  1  0.076459  0  0.111465  0.1106  0  0.977339  0
H  H14  1  0.63040544  0.31696407  0.63627498  1  0.087488  0  0.10622  0.11776  0  1.015342  0
H  H15  1  0.70247110  0.13723127  0.69334920  1  0.085977  0  0.110682  0.108066  0  0.978538  0
H  H16  1  0.80848552  0.42599702  0.18571499  1  0.034644  0  0.078319  0.082159  0  1.048183  0
H  H17  1  0.80887704  0.58474903  0.19641764  1  0.018172  0  0.089585  0.098019  0  0.981753  0
H  H18  1  0.81503033  0.55182437  0.30853440  1  0.030168  0  0.086963  0.093737  0  0.993131  0
H  H19  1  0.80221233  0.39297875  0.29576389  1  0.008329  0  0.084047  0.083806  0  1.012454  0
H  H20  1  0.85457520  0.60823432  0.86603970  1  0.087721  0  0.102448  0.124801  0  0.981805  0
H  H21  1  0.87134960  0.73803928  0.91292042  1  0.059873  0  0.099672  0.113665  0  1.001083  0
H  H22  1  0.12769156  0.72459328  0.90536272  1  0.098342  0  0.101056  0.124772  0  1.012736  0
H  H23  1  0.11018931  0.59564348  0.85836238  1  0.08259  0  0.10497  0.12732  0  0.969908  0
H  H24  1  0.79440515  0.88754865  0.04930735  1  0.071878  0  0.08901  0.096867  0  0.991066  0
H  H25  1  0.81865443  0.89575217  0.96990193  1  0.022516  0  0.087205  0.09012  0  1.013523  0
H  H26  1  0.82419470  0.12238462  0.97614900  1  0.022667  0  0.086415  0.094731  0  0.993845  0
H  H27  1  0.79412350  0.11194105  0.05531853  1  0.012812  0  0.080191  0.075361  0  1.019049  0
H  H28  1  0.76959880  0.38344190  0.40253748  1  0.529605  0  0.303488  0.324321  0  0.98465  0
H  H29  1  0.92701600  0.34375280  0.37633404  1  0.443391  0  0.309902  0.294238  0  0.959394  0
H  H30  1  0.24052237  0.31095556  0.44326150  1  0.513771  0  0.306509  0.325751  0  0.970611  0
H  H31  1  0.08725474  0.26080247  0.41502197  1  0.451622  0  0.312883  0.298381  0  0.948969  0
H  H32  1  0.75141366  0.20151188  0.50729677  1  0.47046  0  0.288307  0.299218  0  1.002268  0
H  H33  1  0.82738530  0.06400371  0.51864210  1  0.429861  0  0.297022  0.284987  0  0.966464  0
H  H34  1  0.74008148  0.78478361  0.47639168  1  0.483358  0  0.290932  0.299878  0  1.000873  0
H  H35  1  0.81740424  0.92048559  0.46007819  1  0.435207  0  0.294369  0.277567  0  0.974262  0
H  H36  1  0.25067487  0.52689311  0.35360999  1  0.507385  0  0.287881  0.301111  0  1.002556  0
H  H37  1  0.17991846  0.58612023  0.28931435  1  0.413831  0  0.295747  0.283109  0  0.965182  0
H  H38  1  0.24412055  0.53662721  0.14284371  1  0.491987  0  0.286818  0.297938  0  1.012187  0
H  H39  1  0.16057997  0.49802099  0.20892290  1  0.427163  0  0.292461  0.277051  0  0.982412  0
H  H40  1  0.23702140  0.33446138  0.06394093  1  0.539263  0  0.314389  0.334712  0  0.950728  0
H  H41  1  0.09030711  0.32587938  0.10849152  1  0.471704  0  0.319318  0.311262  0  0.939298  0
H  H42  1  0.75781806  0.38388682  0.08557671  1  0.492518  0  0.307092  0.331244  0  0.95707  0
H  H43  1  0.88699230  0.28025799  0.08315740  1  0.456658  0  0.309212  0.295485  0  0.958048  0
H  H44  1  0.24971062  0.21756073  0.97189299  1  0.439552  0  0.292978  0.298189  0  0.988084  0
H  H45  1  0.18534952  0.08469570  0.94426881  1  0.403119  0  0.300384  0.289613  0  0.955471  0
H  H46  1  0.24470222  0.79809614  0.98400857  1  0.49659  0  0.292433  0.297993  0  1.005193  0
H  H47  1  0.16341727  0.93279972  0.99873114  1  0.420534  0  0.296354  0.281616  0  0.97019  0
C  C48  1  0.49289430  0.73032913  0.49319881  1  1.49854  0  0.217635  0.615114  0  4.140023  0
C  C49  1  0.51867883  0.51610114  0.61560957  1  1.601952  0  0.217719  0.592721  0  4.235509  0
C  C50  1  0.50202640  0.25867257  0.50289810  1  1.462736  0  0.216442  0.614845  0  4.144694  0
C  C51  1  0.49539756  0.48583207  0.37941611  1  1.492633  0  0.217009  0.615918  0  4.140259  0
C  C52  1  0.49224755  0.74277191  0.99465579  1  1.510158  0  0.21591  0.60876  0  4.144319  0
C  C53  1  0.50254763  0.51314236  0.87874762  1  1.609807  0  0.215502  0.591623  0  4.23585  0
C  C54  1  0.49853556  0.27163789  0.99533883  1  1.571584  0  0.213937  0.611999  0  4.153916  0
C  C55  1  0.49050852  0.51071518  0.11506937  1  1.478932  0  0.214269  0.613231  0  4.144935  0
C  C56  1  0.07014808  0.55133547  0.53997458  1  0.506957  0  0.101117  0.151496  0  3.966134  0
C  C57  1  0.93048387  0.42458039  0.45771460  1  1.050205  0  0.23419  0.313441  0  4.024203  0
C  C58  1  0.93062010  0.55447757  0.53680668  1  0.46096  0  0.098245  0.146693  0  3.958754  0
C  C59  1  0.07708871  0.41263652  0.46500044  1  1.008118  0  0.236003  0.314186  0  4.017622  0
C  C60  1  0.07933169  0.63695601  0.59265707  1  -0.064336  0  -0.145865  -0.216218  0  3.849438  0
C  C61  1  0.91742767  0.64072826  0.58912933  1  -0.018058  0  -0.146525  -0.212981  0  3.844645  0
C  C62  1  0.50014319  0.86350271  0.49500635  1  0.056973  0  -0.027329  -0.179447  0  3.973358  0
C  C63  1  0.50384145  0.12574286  0.49982922  1  0.023168  0  -0.035314  -0.199385  0  3.993271  0
C  C64  1  0.38168972  0.93261286  0.50053273  1  -0.086096  0  -0.023388  0.044593  0  3.963856  0
C  C65  1  0.62644624  0.05852661  0.49706743  1  0.446982  0  0.094995  0.190892  0  4.007184  0
C  C66  1  0.38272158  0.05715899  0.50088677  1  0.037482  0  -0.029169  0.029733  0  3.968244  0
C  C67  1  0.62412115  0.92946215  0.49172339  1  0.384663  0  0.095395  0.185387  0  4.002987  0
C  C68  1  0.22887679  0.92321854  0.50832956  1  -0.060862  0  -0.156847  -0.190365  0  3.904523  0
C  C69  1  0.22912304  0.06540382  0.50737815  1  0.066842  0  -0.160194  -0.188253  0  3.912967  0
C  C70  1  0.50933569  0.51819247  0.81090801  1  0.095788  0  0.010753  -0.073595  0  3.890861  0
C  C71  1  0.55937968  0.41487743  0.77979881  1  0.012736  0  0.004648  0.063025  0  3.952637  0
C  C72  1  0.47619876  0.61984198  0.77854523  1  0.195141  0  0.080915  -0.004141  0  3.941281  0
C  C73  1  0.60199332  0.31051529  0.81133112  1  -0.037306  0  -0.081924  -0.119596  0  3.940538  0
C  C74  1  0.65252916  0.21267830  0.78049274  1  -0.02353  0  -0.077532  -0.065374  0  4.001984  0
C  C75  1  0.52564645  0.52159514  0.68334875  1  0.066395  0  0.011884  -0.073887  0  3.901438  0
C  C76  1  0.48115277  0.62043893  0.71483434  1  0.29104  0  0.080063  -0.007363  0  3.949634  0
C  C77  1  0.57005552  0.41741705  0.71549895  1  0.007327  0  0.005042  0.064369  0  3.953218  0
C  C78  1  0.62174655  0.31520571  0.68513507  1  -0.008647  0  -0.081981  -0.11911  0  3.942386  0
C  C79  1  0.66252292  0.21511859  0.71716704  1  -0.053639  0  -0.078723  -0.066327  0  4.006453  0
C  C80  1  0.48869797  0.51309978  0.18171713  1  0.070988  0  -0.035247  -0.196572  0  3.98229  0
C  C81  1  0.49008407  0.49381871  0.31283863  1  0.064813  0  -0.032964  -0.192067  0  3.979985  0
C  C82  1  0.60876395  0.50097982  0.21596489  1  0.018564  0  -0.028238  0.037707  0  3.965855  0
C  C83  1  0.36742301  0.51332382  0.28017635  1  0.414026  0  0.094114  0.188584  0  4.002664  0
C  C84  1  0.60909541  0.48945708  0.27794547  1  -0.027725  0  -0.029895  0.030814  0  3.971953  0
C  C85  1  0.36646531  0.52080424  0.21547115  1  0.415353  0  0.094424  0.189252  0  4.013078  0
C  C86  1  0.76292723  0.49938681  0.21162873  1  -0.009751  0  -0.162961  -0.190444  0  3.909707  0
C  C87  1  0.76312724  0.48143602  0.28195022  1  -0.04445  0  -0.161158  -0.192665  0  3.92343  0
C  C88  1  0.92474562  0.56590862  0.95795991  1  0.450773  0  0.101029  0.147427  0  3.95691  0
C  C89  1  0.06997558  0.42527268  0.03153936  1  1.064452  0  0.238131  0.322053  0  4.027336  0
C  C90  1  0.06383233  0.55763840  0.95367609  1  0.522991  0  0.103053  0.155191  0  3.957568  0
C  C91  1  0.92245886  0.43324972  0.03568151  1  1.018655  0  0.235771  0.312431  0  4.006912  0
C  C92  1  0.91117870  0.64774840  0.90396841  1  -0.016868  0  -0.14464  -0.211981  0  3.852775  0
C  C93  1  0.07248712  0.63916547  0.89928387  1  -0.056597  0  -0.146014  -0.221252  0  3.834594  0
C  C94  1  0.48953148  0.87594274  0.99206425  1  0.075013  0  -0.028716  -0.185285  0  3.973573  0
C  C95  1  0.49333179  0.13848207  0.99362656  1  -0.026526  0  -0.03562  -0.196548  0  3.996606  0
C  C96  1  0.60975737  0.94421350  0.99849507  1  -0.101796  0  -0.023655  0.045219  0  3.960269  0
C  C97  1  0.37014469  0.07267270  0.98481730  1  0.438669  0  0.093995  0.185908  0  4.000351  0
C  C98  1  0.61155862  0.06872474  0.99986995  1  0.032729  0  -0.030651  0.030002  0  3.973232  0
C  C99  1  0.36784608  0.94314342  0.98548906  1  0.409492  0  0.099416  0.193517  0  4.005393  0
C  C100  1  0.76230645  0.93393858  0.00797158  1  -0.020134  0  -0.156876  -0.189825  0  3.905001  0
C  C101  1  0.76404092  0.07621606  0.01090131  1  -0.028953  0  -0.159209  -0.188936  0  3.919193  0
N  N102  1  0.14786737  0.48149929  0.50439871  1  -1.244474  0  -0.320995  -0.306996  0  3.471191  0
N  N103  1  0.85637768  0.49367283  0.49509674  1  -1.244593  0  -0.323172  -0.313171  0  3.46781  0
N  N104  1  0.84999372  0.50512594  0.99893778  1  -1.223701  0  -0.313005  -0.293128  0  3.468362  0
N  N105  1  0.14147210  0.48998110  0.99075323  1  -1.252536  0  -0.322485  -0.317759  0  3.456995  0
N  N106  1  0.86861803  0.36043203  0.41290846  1  -1.267847  0  -0.581078  -0.618861  0  3.346775  0
N  N107  1  0.14339463  0.33250988  0.42934402  1  -1.229848  0  -0.578093  -0.608219  0  3.332848  0
N  N108  1  0.75457403  0.11213201  0.49663960  1  -1.200093  0  -0.6104  -0.621935  0  3.350348  0
N  N109  1  0.75019723  0.87436233  0.48631590  1  -1.240817  0  -0.604029  -0.612308  0  3.337899  0
N  N110  1  0.24130052  0.52227603  0.30778467  1  -1.247109  0  -0.611049  -0.622906  0  3.337801  0
N  N111  1  0.24080985  0.53974399  0.18876093  1  -1.262708  0  -0.608422  -0.615524  0  3.356172  0
N  N112  1  0.13494576  0.34856102  0.06915887  1  -1.302976  0  -0.574823  -0.610563  0  3.368506  0
N  N113  1  0.86007829  0.36838661  0.08026521  1  -1.237557  0  -0.580755  -0.630546  0  3.340375  0
N  N114  1  0.24398601  0.12646445  0.97611144  1  -1.173027  0  -0.609034  -0.618243  0  3.342586  0
N  N115  1  0.24118418  0.88926583  0.97808937  1  -1.244535  0  -0.601279  -0.609258  0  3.356494  0
N  N116  1  0.42426609  0.72347212  0.68174634  1  0.398991  0  0.058483  0.519618  0  4.23228  0
N  N117  1  0.45093330  0.73411831  0.81023681  1  0.410365  0  0.057085  0.51579  0  4.241351  0
O  O118  1  0.60317579  0.67199376  0.48211739  1  -1.178449  0  -0.317621  -0.557121  0  2.368184  0
O  O119  1  0.37759922  0.68061271  0.50262384  1  -1.153216  0  -0.308654  -0.526558  0  2.309501  0
O  O120  1  0.40057309  0.49841922  0.59369318  1  -1.150391  0  -0.307088  -0.526804  0  2.30107  0
O  O121  1  0.63066377  0.52379569  0.58807271  1  -1.153244  0  -0.296591  -0.524709  0  2.350281  0
O  O122  1  0.38729692  0.31165849  0.49616144  1  -1.176574  0  -0.311146  -0.5565  0  2.347742  0
O  O123  1  0.61431008  0.31611087  0.51234122  1  -1.172918  0  -0.313637  -0.551797  0  2.361348  0
O  O124  1  0.61081161  0.46250724  0.40416276  1  -1.184325  0  -0.31628  -0.560263  0  2.347519  0
O  O125  1  0.38657796  0.50340085  0.40951295  1  -1.177858  0  -0.306686  -0.54472  0  2.358234  0
O  O126  1  0.38021198  0.68467937  0.98460195  1  -1.169862  0  -0.312519  -0.542228  0  2.391057  0
O  O127  1  0.60580096  0.69308122  0.00691720  1  -1.16135  0  -0.31261  -0.531037  0  2.301612  0
O  O128  1  0.61241687  0.53870301  0.90632524  1  -1.156279  0  -0.300113  -0.52721  0  2.320644  0
O  O129  1  0.39049639  0.47900730  0.90115220  1  -1.154543  0  -0.307097  -0.529774  0  2.299473  0
O  O130  1  0.61139103  0.32540164  0.98583746  1  -1.171366  0  -0.312195  -0.544442  0  2.290141  0
O  O131  1  0.38625329  0.32718783  0.00675225  1  -1.196219  0  -0.320612  -0.575352  0  2.402565  0
O  O132  1  0.37970662  0.53027409  0.08595442  1  -1.176181  0  -0.313224  -0.554538  0  2.344523  0
O  O133  1  0.60410391  0.48654684  0.08944020  1  -1.18541  0  -0.316132  -0.558407  0  2.33743  0
O  O134  1  0.48640958  0.75953147  0.63694022  1  -0.433691  0  -0.11038  -0.300309  0  1.928228  0
O  O135  1  0.31543216  0.76488603  0.70072667  1  -0.442983  0  -0.135389  -0.335131  0  1.882366  0
O  O136  1  0.37009111  0.73319102  0.85262024  1  -0.445134  0  -0.105852  -0.298028  0  1.979007  0
O  O137  1  0.51713878  0.82279468  0.79257483  1  -0.447185  0  -0.139025  -0.333703  0  1.871548  0
