# generated using pymatgen
data_Hf3H38C63N3O16
_symmetry_space_group_name_H-M   'P 1'
_cell_length_a   17.17578715
_cell_length_b   17.19493141
_cell_length_c   17.20438708
_cell_angle_alpha   91.88795050
_cell_angle_beta   91.89601761
_cell_angle_gamma   92.06316578
_symmetry_Int_Tables_number   1
_chemical_formula_structural   Hf3H38C63N3O16
_chemical_formula_sum   'Hf6 H76 C126 N6 O32'
_cell_volume   5072.04448162
_cell_formula_units_Z   2
loop_
 _symmetry_equiv_pos_site_id
 _symmetry_equiv_pos_as_xyz
  1  'x, y, z'
loop_
 _atom_site_type_symbol
 _atom_site_label
 _atom_site_symmetry_multiplicity
 _atom_site_fract_x
 _atom_site_fract_y
 _atom_site_fract_z
 _atom_site_occupancy
 _atom_site_pbe_bader_charge
 _atom_site_pbe_bader_spin_density
 _atom_site_pbe_cm5_charge
 _atom_site_pbe_ddec_charge
 _atom_site_pbe_ddec_spin_density
 _atom_site_pbe_ddec_sum_bond_order
 _atom_site_pbe_magmom
Hf  Hf0  1  0.84527939  0.80847853  0.95279886  1  2.61715  0  1.504707  2.141334  0  3.333956  0
Hf  Hf1  1  0.00628691  0.75565199  0.84528546  1  2.618167  0  1.504648  2.142925  0  3.331019  0
Hf  Hf2  1  0.92633490  0.99727164  0.98004062  1  2.620213  0  1.505579  2.140586  0  3.343551  0
Hf  Hf3  1  0.89813282  0.91578100  0.79150547  1  2.617272  0  1.504596  2.144608  0  3.324421  0
Hf  Hf4  1  0.03463052  0.83781190  0.03321556  1  2.616574  0  1.505699  2.14338  0  3.339187  0
Hf  Hf5  1  0.08685584  0.94504155  0.87258711  1  2.618537  0  1.505843  2.141199  0  3.343878  0
H  H6  1  0.59071083  0.14785120  0.25665377  1  0.105501  0  0.110993  0.128695  0  0.994671  0
H  H7  1  0.43814590  0.16121156  0.23455332  1  0.073749  0  0.107297  0.124792  0  1.006358  0
H  H8  1  0.34137598  0.61129262  0.56700472  1  0.091874  0  0.11067  0.129455  0  0.993334  0
H  H9  1  0.49358840  0.59881901  0.59230803  1  0.086507  0  0.107364  0.124593  0  1.006503  0
H  H10  1  0.24010794  0.21955614  0.53364234  1  0.102107  0  0.111271  0.130086  0  0.993507  0
H  H11  1  0.25427195  0.20105196  0.38087390  1  0.078393  0  0.107506  0.124941  0  1.005103  0
H  H12  1  0.70276623  0.52646454  0.29021414  1  0.076437  0  0.110896  0.129599  0  0.994128  0
H  H13  1  0.68919974  0.54917047  0.44258751  1  0.065291  0  0.107409  0.124637  0  1.006867  0
H  H14  1  0.31046875  0.49856804  0.18591843  1  0.090002  0  0.110528  0.129048  0  0.994957  0
H  H15  1  0.29105918  0.34566993  0.19996757  1  0.072779  0  0.107317  0.124804  0  1.005879  0
H  H16  1  0.61521459  0.25366626  0.64810063  1  0.10175  0  0.110729  0.129523  0  0.994222  0
H  H17  1  0.63835516  0.40617387  0.63435270  1  0.064954  0  0.107465  0.124445  0  1.00639  0
H  H18  1  0.84873351  0.75838709  0.79546272  1  0.586476  0  0.332076  0.403124  0  0.880585  0
H  H19  1  0.89886159  0.88613125  0.09522011  1  0.608859  0  0.338792  0.419968  0  0.853328  0
H  H20  1  0.97508191  0.05912464  0.84434114  1  0.622366  0  0.33892  0.420809  0  0.851493  0
H  H21  1  0.14936433  0.80976813  0.92163248  1  0.621136  0  0.339162  0.420916  0  0.851339  0
H  H22  1  0.59101451  0.13130894  0.71622553  1  0.075311  0  0.102508  0.103686  0  0.996843  0
H  H23  1  0.66912109  0.28471862  0.90935712  1  0.057638  0  0.104551  0.105723  0  1.007629  0
H  H24  1  0.76953111  0.19106041  0.94586030  1  0.108082  0  0.112187  0.118  0  0.986486  0
H  H25  1  0.69839149  0.04272630  0.74927352  1  0.099975  0  0.107288  0.110708  0  1.009788  0
H  H26  1  0.71329347  0.49733261  0.67481479  1  0.048806  0  0.097604  0.094298  0  1.024339  0
H  H27  1  0.63036064  0.48231832  0.90887037  1  0.066601  0  0.09815  0.100428  0  1.027964  0
H  H28  1  0.73574503  0.57559531  0.95423589  1  0.071468  0  0.106678  0.108962  0  1.00065  0
H  H29  1  0.82325148  0.58197256  0.72345970  1  0.115375  0  0.102287  0.105505  0  1.024233  0
H  H30  1  0.20651767  0.17100305  0.87921094  1  0.081309  0  0.106292  0.109142  0  0.997868  0
H  H31  1  0.10816306  0.16936819  0.10524171  1  0.092458  0  0.103416  0.106871  0  1.031763  0
H  H32  1  0.21499916  0.25663269  0.15687700  1  0.052196  0  0.097283  0.094091  0  1.026431  0
H  H33  1  0.30899973  0.26639919  0.92691197  1  0.079478  0  0.097234  0.099685  0  1.033015  0
H  H34  1  0.33222625  0.62072294  0.11775165  1  0.050363  0  0.102737  0.104056  0  0.996126  0
H  H35  1  0.26168184  0.46500920  0.92400496  1  0.070946  0  0.104822  0.106293  0  1.008416  0
H  H36  1  0.15923712  0.55565277  0.88504486  1  0.088713  0  0.112526  0.118346  0  0.983009  0
H  H37  1  0.22328796  0.70635044  0.08225674  1  0.064173  0  0.10759  0.111646  0  1.007355  0
H  H38  1  0.43071617  0.27161055  0.00642960  1  0.086156  0  0.105976  0.112955  0  1.005838  0
H  H39  1  0.39653843  0.50055535  0.91914543  1  0.05699  0  0.104135  0.113067  0  1.029597  0
H  H40  1  0.50250412  0.48249001  0.83042523  1  0.090824  0  0.10599  0.113818  0  1.004903  0
H  H41  1  0.53621692  0.25333069  0.91748689  1  0.095174  0  0.104432  0.113543  0  1.032122  0
H  H42  1  0.96459274  0.57995204  0.32134200  1  0.084812  0  0.10422  0.105133  0  1.008145  0
H  H43  1  0.77145142  0.50150709  0.16778111  1  0.036763  0  0.102564  0.103555  0  0.997548  0
H  H44  1  0.80481752  0.60879409  0.07896256  1  0.07247  0  0.107947  0.111348  0  1.008988  0
H  H45  1  0.00124582  0.68064746  0.22775113  1  0.094131  0  0.111973  0.11794  0  0.985171  0
H  H46  1  0.96491178  0.54468311  0.51465715  1  0.086268  0  0.098481  0.100581  0  1.02665  0
H  H47  1  0.72817271  0.61782928  0.53883661  1  0.023297  0  0.097705  0.093737  0  1.02407  0
H  H48  1  0.77582992  0.72830214  0.62286290  1  0.086398  0  0.101215  0.104466  0  1.0297  0
H  H49  1  0.00971382  0.64987542  0.60810233  1  0.053459  0  0.105993  0.107134  0  1.004316  0
H  H50  1  0.93301046  0.11718112  0.20614259  1  0.117969  0  0.106247  0.109008  0  0.998926  0
H  H51  1  0.15971623  0.02040673  0.20345259  1  0.105994  0  0.103535  0.107386  0  1.028027  0
H  H52  1  0.21151899  0.12702676  0.29056704  1  0.054925  0  0.097475  0.094096  0  1.02636  0
H  H53  1  0.98078187  0.21924706  0.30173573  1  0.074763  0  0.097668  0.100554  0  1.031883  0
H  H54  1  0.97785988  0.17148549  0.49954382  1  0.050413  0  0.104628  0.105837  0  1.008016  0
H  H55  1  0.17140735  0.24162294  0.65608616  1  0.061649  0  0.102649  0.104091  0  0.99477  0
H  H56  1  0.13485498  0.13285194  0.74171240  1  0.101734  0  0.107897  0.112855  0  1.007214  0
H  H57  1  0.93816992  0.06878726  0.58992240  1  0.067813  0  0.112551  0.118567  0  0.982956  0
H  H58  1  0.97481605  0.30723414  0.53636295  1  0.099988  0  0.103775  0.112814  0  1.029206  0
H  H59  1  0.06017771  0.34124211  0.30661163  1  0.090096  0  0.105744  0.113167  0  1.005909  0
H  H60  1  0.97160095  0.44686704  0.28902962  1  0.06772  0  0.104171  0.113531  0  1.033595  0
H  H61  1  0.88655414  0.41352074  0.51907532  1  0.084197  0  0.105375  0.113063  0  1.005107  0
H  H62  1  0.27843004  0.91285932  0.71119390  1  0.102904  0  0.111757  0.117207  0  0.985949  0
H  H63  1  0.13145482  0.71255412  0.64755382  1  0.100853  0  0.107488  0.111084  0  1.011801  0
H  H64  1  0.21953221  0.67734923  0.54041711  1  0.081176  0  0.102179  0.10222  0  0.997335  0
H  H65  1  0.37125559  0.87495660  0.61039011  1  0.039719  0  0.103386  0.104299  0  1.00903  0
H  H66  1  0.59679858  0.63677837  0.65133911  1  0.063552  0  0.097346  0.093283  0  1.021383  0
H  H67  1  0.55949993  0.87449650  0.58817426  1  0.077161  0  0.099011  0.100527  0  1.023369  0
H  H68  1  0.65338290  0.91967375  0.69287832  1  0.053608  0  0.105683  0.106846  0  1.003272  0
H  H69  1  0.68032752  0.68406654  0.76225494  1  0.079761  0  0.1004  0.102403  0  1.033344  0
H  H70  1  0.25295369  0.07265219  0.06221349  1  0.103351  0  0.102399  0.105466  0  1.03742  0
H  H71  1  0.27049648  0.84004900  0.14266559  1  0.083944  0  0.10567  0.10795  0  1.001045  0
H  H72  1  0.36689281  0.88597882  0.24468145  1  0.072296  0  0.097945  0.099799  0  1.028644  0
H  H73  1  0.33952740  0.12176908  0.17027325  1  0.049454  0  0.097576  0.093473  0  1.025398  0
H  H74  1  0.71249320  0.08104954  0.27839479  1  0.036377  0  0.102749  0.104231  0  0.99614  0
H  H75  1  0.55803323  0.88417768  0.21321461  1  0.074834  0  0.10394  0.105489  0  1.009573  0
H  H76  1  0.64723113  0.84572124  0.10923527  1  0.093816  0  0.112192  0.117282  0  0.983164  0
H  H77  1  0.79691745  0.04545401  0.16855656  1  0.091657  0  0.107938  0.112745  0  1.00728  0
H  H78  1  0.59513098  0.89067815  0.35276715  1  0.091802  0  0.104126  0.113771  0  1.028526  0
H  H79  1  0.35687930  0.95908023  0.36861427  1  0.082239  0  0.105594  0.113875  0  1.00954  0
H  H80  1  0.33767499  0.86967178  0.47312978  1  0.096955  0  0.103902  0.113188  0  1.031418  0
H  H81  1  0.57619848  0.80167301  0.45804353  1  0.080927  0  0.105983  0.114095  0  1.007297  0
C  C82  1  0.56096154  0.02669934  0.28411618  1  0.260381  0  0.076286  0.083821  0  3.938955  0
C  C83  1  0.54651519  0.10419819  0.27052236  1  -0.032719  0  -0.101291  -0.173869  0  3.997692  0
C  C84  1  0.46533715  0.11064459  0.25806649  1  -0.02556  0  -0.106401  -0.186398  0  4.010642  0
C  C85  1  0.42940581  0.03730626  0.26415251  1  0.275843  0  0.077349  0.087243  0  3.934647  0
C  C86  1  0.37122589  0.73248620  0.53980957  1  0.345465  0  0.078219  0.088395  0  3.94059  0
C  C87  1  0.38567469  0.65512058  0.55386458  1  -0.090486  0  -0.102608  -0.177196  0  4.002335  0
C  C88  1  0.46667658  0.64906274  0.56780998  1  0.028251  0  -0.107174  -0.186319  0  4.013481  0
C  C89  1  0.50258038  0.72244872  0.56205534  1  0.265611  0  0.076115  0.085157  0  3.935054  0
C  C90  1  0.11861458  0.24611520  0.50437992  1  0.334668  0  0.076951  0.087029  0  3.940676  0
C  C91  1  0.19636180  0.23361558  0.48978959  1  -0.095954  0  -0.10225  -0.177564  0  3.998365  0
C  C92  1  0.20319513  0.22293704  0.40856072  1  0.02835  0  -0.10733  -0.187001  0  4.013817  0
C  C93  1  0.12986820  0.22896858  0.37276591  1  0.268352  0  0.076415  0.085194  0  3.935165  0
C  C94  1  0.82502479  0.50326321  0.31969871  1  0.275249  0  0.077474  0.089492  0  3.94331  0
C  C95  1  0.74707449  0.51449230  0.33428332  1  -0.043945  0  -0.102396  -0.178266  0  4.000993  0
C  C96  1  0.74047692  0.52720517  0.41533929  1  0.03046  0  -0.107007  -0.186547  0  4.014124  0
C  C97  1  0.81413968  0.52352232  0.45099941  1  0.252394  0  0.075199  0.082908  0  3.938521  0
C  C98  1  0.33647594  0.46938495  0.06441044  1  0.34028  0  0.07639  0.084863  0  3.944701  0
C  C99  1  0.32413605  0.45470163  0.14209399  1  -0.093092  0  -0.10165  -0.176306  0  3.999682  0
C  C100  1  0.31294689  0.37341726  0.14888507  1  0.032929  0  -0.106949  -0.18721  0  4.012988  0
C  C101  1  0.31845951  0.33775269  0.07556158  1  0.258461  0  0.076695  0.085286  0  3.935754  0
C  C102  1  0.59233742  0.28313933  0.77023670  1  0.27415  0  0.077913  0.089234  0  3.939216  0
C  C103  1  0.60355211  0.29779312  0.69239138  1  -0.022444  0  -0.102784  -0.179007  0  4.001703  0
C  C104  1  0.61660529  0.37888624  0.68573267  1  -0.03271  0  -0.107285  -0.185924  0  4.015549  0
C  C105  1  0.61329103  0.41452531  0.75931259  1  0.274091  0  0.075832  0.083552  0  3.939094  0
C  C106  1  0.76827656  0.93402496  0.05779110  1  1.536056  0  0.236246  0.62658  0  4.108248  0
C  C107  1  0.84943200  0.64135829  0.87224525  1  1.556108  0  0.233438  0.618957  0  4.11354  0
C  C108  1  0.73058379  0.83470654  0.79674051  1  1.566387  0  0.235408  0.621617  0  4.108279  0
C  C109  1  0.91226021  0.72504768  0.10579529  1  1.552244  0  0.242354  0.636843  0  4.090013  0
C  C110  1  0.15887561  0.82249138  0.76060284  1  1.53403  0  0.242223  0.635324  0  4.088216  0
C  C111  1  0.08832353  0.10804472  0.95694435  1  1.546529  0  0.238059  0.630163  0  4.100035  0
C  C112  1  0.92556503  0.75912939  0.67811027  1  1.565015  0  0.234789  0.621423  0  4.114532  0
C  C113  1  0.11159033  0.67911641  0.97137568  1  1.527459  0  0.236189  0.626374  0  4.109162  0
C  C114  1  0.01129270  0.99979457  0.14283964  1  1.529321  0  0.236243  0.626066  0  4.104336  0
C  C115  1  0.81393647  0.06896700  0.85730295  1  1.541549  0  0.242609  0.637206  0  4.087325  0
C  C116  1  0.02399439  0.02102237  0.71388182  1  1.525719  0  0.237248  0.626892  0  4.111274  0
C  C117  1  0.19818703  0.92265060  0.03400663  1  1.555541  0  0.2392  0.632376  0  4.09858  0
C  C118  1  0.62998725  0.14454587  0.76661838  1  -0.02779  0  -0.094016  -0.140591  0  3.994501  0
C  C119  1  0.62477456  0.21629563  0.80809837  1  -0.036587  0  -0.000732  0.062377  0  4.024917  0
C  C120  1  0.67227329  0.22979340  0.87634305  1  0.030369  0  -0.091577  -0.136911  0  3.975329  0
C  C121  1  0.72979681  0.17862228  0.89593945  1  -0.076923  0  -0.078367  -0.078323  0  3.980391  0
C  C122  1  0.74235801  0.11371394  0.84723419  1  -0.0414  0  -0.018726  -0.048249  0  3.97716  0
C  C123  1  0.68946771  0.09507687  0.78479928  1  -0.043336  0  -0.07906  -0.079352  0  3.980047  0
C  C124  1  0.71720317  0.51366769  0.73655474  1  -0.055158  0  -0.092348  -0.126159  0  3.969127  0
C  C125  1  0.66248541  0.48165772  0.78766081  1  -0.016705  0  -0.005166  0.054605  0  4.020722  0
C  C126  1  0.67072002  0.50524078  0.86701249  1  -0.075574  0  -0.097606  -0.139736  0  3.985487  0
C  C127  1  0.73128556  0.55616500  0.89329286  1  0.066786  0  -0.080937  -0.078792  0  3.982837  0
C  C128  1  0.78839144  0.58265524  0.84289133  1  0.000799  0  -0.020319  -0.048386  0  3.98156  0
C  C129  1  0.78028499  0.56088661  0.76375505  1  -0.107812  0  -0.086481  -0.096503  0  3.997262  0
C  C130  1  0.20817793  0.19175447  0.93976336  1  -0.036257  0  -0.080981  -0.079161  0  3.982976  0
C  C131  1  0.14907045  0.16587686  0.98817983  1  0.037717  0  -0.019151  -0.048956  0  3.977473  0
C  C132  1  0.15306577  0.18987454  0.06681994  1  -0.025299  0  -0.082382  -0.087893  0  3.986076  0
C  C133  1  0.21433824  0.23846153  0.09563544  1  -0.06113  0  -0.091684  -0.125729  0  3.964297  0
C  C134  1  0.27129080  0.26955404  0.04635985  1  -0.081452  0  -0.005512  0.052528  0  4.020811  0
C  C135  1  0.26704454  0.24397953  0.96745453  1  -0.016028  0  -0.099047  -0.142059  0  3.991898  0
C  C136  1  0.29440623  0.60633107  0.06675886  1  0.007739  0  -0.094408  -0.140213  0  3.995291  0
C  C137  1  0.30238543  0.53482596  0.02564165  1  -0.062189  0  -0.000498  0.063845  0  4.026926  0
C  C138  1  0.25630773  0.51983039  0.95667402  1  -0.003459  0  -0.091349  -0.136123  0  3.973613  0
C  C139  1  0.19766508  0.56932020  0.93571308  1  -0.038413  0  -0.078598  -0.077232  0  3.981106  0
C  C140  1  0.18263206  0.63402215  0.98380983  1  -0.024228  0  -0.022307  -0.057968  0  3.994962  0
C  C141  1  0.23394598  0.65406622  0.04727605  1  -0.006872  0  -0.081083  -0.08152  0  3.985457  0
C  C142  1  0.44533967  0.31799793  0.96719045  1  -0.015287  0  -0.095044  -0.157289  0  4.00131  0
C  C143  1  0.40317582  0.38650909  0.96918321  1  0.295752  0  0.088204  0.162697  0  4.004767  0
C  C144  1  0.42625452  0.44577834  0.91953104  1  -0.014131  0  -0.09764  -0.161019  0  3.993068  0
C  C145  1  0.48763372  0.43594422  0.86942910  1  0.021654  0  -0.095855  -0.159525  0  4.002137  0
C  C146  1  0.52927787  0.36712585  0.86694033  1  0.243007  0  0.089517  0.165962  0  4.004668  0
C  C147  1  0.50652690  0.30810153  0.91697694  1  -0.017232  0  -0.099104  -0.163827  0  3.994164  0
C  C148  1  0.93161362  0.58317247  0.26639022  1  -0.067747  0  -0.091697  -0.136214  0  3.977521  0
C  C149  1  0.86317892  0.53566905  0.25291422  1  -0.011597  0  -0.001381  0.060176  0  4.028828  0
C  C150  1  0.82183807  0.54067030  0.18106563  1  0.013249  0  -0.093679  -0.139986  0  3.99582  0
C  C151  1  0.84014615  0.60012728  0.13150741  1  -0.052185  0  -0.078917  -0.077962  0  3.977429  0
C  C152  1  0.90254822  0.65323989  0.15029770  1  -0.031215  0  -0.018916  -0.049868  0  3.978441  0
C  C153  1  0.95131204  0.64079307  0.21523329  1  0.011143  0  -0.078197  -0.078017  0  3.980404  0
C  C154  1  0.92236040  0.58287465  0.53965933  1  -0.018039  0  -0.097657  -0.139653  0  3.986883  0
C  C155  1  0.84247027  0.57213673  0.51837071  1  -0.030548  0  -0.006005  0.052591  0  4.023636  0
C  C156  1  0.79043378  0.62408318  0.55289109  1  0.021549  0  -0.092384  -0.124885  0  3.97125  0
C  C157  1  0.81702500  0.68735549  0.59996627  1  -0.063545  0  -0.086388  -0.097852  0  3.999198  0
C  C158  1  0.89663833  0.69809025  0.61937260  1  -0.021105  0  -0.020114  -0.045876  0  3.979649  0
C  C159  1  0.94821304  0.64339618  0.59067454  1  -0.021179  0  -0.081701  -0.079639  0  3.983937  0
C  C160  1  0.99377011  0.11917450  0.22662910  1  -0.059252  0  -0.082108  -0.081879  0  3.986717  0
C  C161  1  0.04236116  0.06053403  0.20054476  1  -0.023484  0  -0.018551  -0.046053  0  3.979112  0
C  C162  1  0.12120205  0.06492119  0.22421302  1  0.001986  0  -0.082495  -0.08734  0  3.98657  0
C  C163  1  0.15007349  0.12604607  0.27274320  1  -0.038317  0  -0.091583  -0.125985  0  3.968308  0
C  C164  1  0.10061991  0.18235954  0.30433598  1  -0.08505  0  -0.005565  0.051933  0  4.021717  0
C  C165  1  0.02148886  0.17779960  0.27897548  1  -0.029555  0  -0.099235  -0.142401  0  3.991196  0
C  C166  1  0.01032541  0.16594310  0.55447546  1  -0.045069  0  -0.090941  -0.134413  0  3.973463  0
C  C167  1  0.07949441  0.21193046  0.56970921  1  -0.000239  0  -0.000117  0.062156  0  4.028311  0
C  C168  1  0.12027683  0.20388389  0.64141614  1  -0.052815  0  -0.094155  -0.138813  0  3.993316  0
C  C169  1  0.10020584  0.14348486  0.68918273  1  -0.063117  0  -0.081004  -0.082671  0  3.986571  0
C  C170  1  0.03666312  0.09214679  0.66882122  1  0.043282  0  -0.022873  -0.05729  0  3.992842  0
C  C171  1  0.98891384  0.10722152  0.60384083  1  -0.013396  0  -0.078688  -0.078467  0  3.981157  0
C  C172  1  0.97485890  0.33698464  0.48156153  1  0.01741  0  -0.098185  -0.1617  0  3.993287  0
C  C173  1  0.02378423  0.31367697  0.42185367  1  0.308584  0  0.088516  0.163823  0  4.006652  0
C  C174  1  0.02139778  0.35585987  0.35335681  1  -0.039129  0  -0.095325  -0.157682  0  4.004005  0
C  C175  1  0.97140900  0.41721071  0.34384789  1  -0.033911  0  -0.099094  -0.165044  0  3.995289  0
C  C176  1  0.92191759  0.44005796  0.40326372  1  0.287382  0  0.088197  0.163773  0  4.004115  0
C  C177  1  0.92499361  0.39850015  0.47216403  1  -0.044452  0  -0.095243  -0.158342  0  4.001734  0
C  C178  1  0.26611684  0.86168777  0.67311701  1  -0.00879  0  -0.07822  -0.078485  0  3.979874  0
C  C179  1  0.20211782  0.81225708  0.68812362  1  -0.013304  0  -0.019435  -0.049195  0  3.978515  0
C  C180  1  0.18338896  0.74838324  0.63701935  1  -0.033685  0  -0.079092  -0.079556  0  3.979  0
C  C181  1  0.23255203  0.72907185  0.57763084  1  -0.054272  0  -0.094133  -0.139163  0  3.993624  0
C  C182  1  0.30404794  0.77104383  0.57073260  1  -0.01431  0  -0.001118  0.060969  0  4.026623  0
C  C183  1  0.31688827  0.84112274  0.61550968  1  -0.056798  0  -0.091137  -0.134374  0  3.972842  0
C  C184  1  0.60762080  0.69933429  0.66001232  1  -0.072757  0  -0.091902  -0.12385  0  3.968479  0
C  C185  1  0.56969810  0.75156675  0.61070384  1  -0.060162  0  -0.006496  0.050726  0  4.024813  0
C  C186  1  0.58746315  0.83183117  0.62411850  1  -0.072983  0  -0.096623  -0.136914  0  3.984899  0
C  C187  1  0.63860857  0.85774829  0.68450435  1  0.080714  0  -0.082483  -0.082536  0  3.987616  0
C  C188  1  0.67081544  0.80562588  0.73661652  1  -0.089161  0  -0.018396  -0.041992  0  3.975671  0
C  C189  1  0.65467846  0.72571982  0.72340817  1  0.007939  0  -0.086976  -0.099144  0  3.998067  0
C  C190  1  0.27715570  0.03220005  0.10310133  1  -0.027152  0  -0.083211  -0.09032  0  3.986607  0
C  C191  1  0.25732734  0.95265471  0.09403543  1  -0.027759  0  -0.017234  -0.041587  0  3.972047  0
C  C192  1  0.28778110  0.90161838  0.14826649  1  -0.076934  0  -0.082996  -0.084337  0  3.987796  0
C  C193  1  0.34044023  0.92813577  0.20707482  1  -0.010143  0  -0.098108  -0.139304  0  3.990115  0
C  C194  1  0.36141872  0.00812982  0.21677933  1  -0.024516  0  -0.0066  0.05002  0  4.026012  0
C  C195  1  0.32568719  0.05948526  0.16494071  1  -0.009658  0  -0.092011  -0.126089  0  3.9707  0
C  C196  1  0.69800670  0.02947000  0.24142833  1  0.01036  0  -0.094472  -0.140579  0  3.995357  0
C  C197  1  0.62677216  0.98778946  0.25073340  1  0.005887  0  -0.000743  0.063662  0  4.025575  0
C  C198  1  0.61220453  0.91779363  0.20619917  1  0.006332  0  -0.09262  -0.138754  0  3.973767  0
C  C199  1  0.66090023  0.89700845  0.14679875  1  -0.061475  0  -0.076939  -0.07258  0  3.978158  0
C  C200  1  0.72463999  0.94602747  0.12983460  1  -0.054626  0  -0.02336  -0.060023  0  3.994065  0
C  C201  1  0.74507501  0.00998213  0.18037828  1  -0.043092  0  -0.081305  -0.081813  0  3.986736  0
C  C202  1  0.53807712  0.88673316  0.37823244  1  0.02722  0  -0.099438  -0.165235  0  3.997501  0
C  C203  1  0.47687349  0.93143027  0.35016725  1  0.251378  0  0.088759  0.163498  0  4.01053  0
C  C204  1  0.40533768  0.92406231  0.38699474  1  0.01886  0  -0.096815  -0.159751  0  4.007734  0
C  C205  1  0.39476437  0.87348432  0.44776020  1  -0.056974  0  -0.099912  -0.165585  0  3.995456  0
C  C206  1  0.45588258  0.82862807  0.47570426  1  0.274021  0  0.088249  0.163814  0  4.007656  0
C  C207  1  0.52760989  0.83636700  0.43928065  1  -0.029463  0  -0.096782  -0.158858  0  4.004017  0
N  N208  1  0.48787294  0.98716547  0.29105562  1  -1.145651  0  -0.22944  -0.085491  0  3.599695  0
N  N209  1  0.44433528  0.77240721  0.53434060  1  -1.147614  0  -0.229576  -0.087564  0  3.599326  0
N  N210  1  0.07919130  0.25408035  0.43164364  1  -1.150788  0  -0.229322  -0.087411  0  3.596623  0
N  N211  1  0.86514276  0.49829060  0.39251827  1  -1.14302  0  -0.230287  -0.086856  0  3.594082  0
N  N212  1  0.34382789  0.39661030  0.02490036  1  -1.157431  0  -0.228939  -0.08495  0  3.596401  0
N  N213  1  0.58766524  0.35605330  0.81029817  1  -1.124982  0  -0.230558  -0.08985  0  3.593835  0
O  O214  1  0.81187782  0.99070694  0.03747893  1  -1.179655  0  -0.335005  -0.574721  0  2.326003  0
O  O215  1  0.91655069  0.64636194  0.84344538  1  -1.172205  0  -0.314154  -0.563353  0  2.195127  0
O  O216  1  0.73610811  0.80604323  0.86371035  1  -1.173636  0  -0.314559  -0.563218  0  2.19841  0
O  O217  1  0.85489378  0.74287477  0.06196910  1  -1.174883  0  -0.336286  -0.577406  0  2.327809  0
O  O218  1  0.97653912  0.76555058  0.11612150  1  -1.179254  0  -0.357527  -0.597925  0  2.280826  0
O  O219  1  0.77732169  0.88706614  0.77074774  1  -1.171783  0  -0.362776  -0.596744  0  2.365747  0
O  O220  1  0.82448148  0.68793065  0.92508346  1  -1.179369  0  -0.364832  -0.59848  0  2.377287  0
O  O221  1  0.76046564  0.86744780  0.02121307  1  -1.178574  0  -0.356444  -0.593737  0  2.268725  0
O  O222  1  0.96145454  0.78229900  0.95106923  1  -1.196436  0  -0.765019  -1.055989  0  2.240397  0
O  O223  1  0.87142901  0.91435339  0.90739646  1  -1.194564  0  -0.765197  -1.054849  0  2.236511  0
O  O224  1  0.88235263  0.79223101  0.82909529  1  -1.215774  0  -0.660817  -0.986552  0  2.447366  0
O  O225  1  0.91552646  0.88374653  0.04191687  1  -1.234593  0  -0.662478  -0.994501  0  2.432851  0
O  O226  1  0.11551061  0.76508822  0.77978703  1  -1.175986  0  -0.338304  -0.579086  0  2.327881  0
O  O227  1  0.02144637  0.10247974  0.98595198  1  -1.184955  0  -0.315241  -0.568192  0  2.203032  0
O  O228  1  0.89637961  0.82591094  0.68300863  1  -1.177976  0  -0.315113  -0.564691  0  2.196645  0
O  O229  1  0.09249427  0.72374645  0.02749799  1  -1.17694  0  -0.333636  -0.573616  0  2.32888  0
O  O230  1  0.04065783  0.93321793  0.13741996  1  -1.177985  0  -0.314062  -0.566225  0  2.20735  0
O  O231  1  0.83185439  0.02466015  0.80039925  1  -1.176366  0  -0.335346  -0.577826  0  2.326593  0
O  O232  1  0.08038890  0.00188837  0.75822182  1  -1.177488  0  -0.335434  -0.574893  0  2.333358  0
O  O233  1  0.19207898  0.95205592  0.96751291  1  -1.189426  0  -0.314547  -0.568653  0  2.203353  0
O  O234  1  0.95736962  0.98420299  0.70644325  1  -1.182738  0  -0.355515  -0.592987  0  2.268302  0
O  O235  1  0.15448035  0.86652171  0.05826347  1  -1.181998  0  -0.37136  -0.611749  0  2.362558  0
O  O236  1  0.97841806  0.73437318  0.72481439  1  -1.180072  0  -0.363488  -0.597966  0  2.376369  0
O  O237  1  0.85415982  0.07961461  0.92154027  1  -1.174729  0  -0.357964  -0.598054  0  2.280688  0
O  O238  1  0.95454359  0.02304604  0.09953954  1  -1.177276  0  -0.371389  -0.610197  0  2.365689  0
O  O239  1  0.07468355  0.67127915  0.90499069  1  -1.182505  0  -0.356006  -0.593839  0  2.267091  0
O  O240  1  0.16966311  0.88697701  0.80036349  1  -1.182162  0  -0.357255  -0.596899  0  2.2789  0
O  O241  1  0.11187486  0.06483079  0.90032309  1  -1.181348  0  -0.372321  -0.611435  0  2.367053  0
O  O242  1  0.02981230  0.94071398  0.97573303  1  -1.198418  0  -0.762713  -1.060372  0  2.222104  0
O  O243  1  0.00432029  0.87147010  0.81806072  1  -1.195867  0  -0.764391  -1.055531  0  2.238975  0
O  O244  1  0.97278093  0.00587259  0.86123866  1  -1.248187  0  -0.662751  -0.995359  0  2.430363  0
O  O245  1  0.09603772  0.82649031  0.91958868  1  -1.245623  0  -0.6626  -0.995187  0  2.431342  0
