# generated using pymatgen
data_AlH7C13SNClO8
_symmetry_space_group_name_H-M   'P 1'
_cell_length_a   6.66502022
_cell_length_b   11.23471800
_cell_length_c   17.01819341
_cell_angle_alpha   88.83597386
_cell_angle_beta   81.59006725
_cell_angle_gamma   71.85310116
_symmetry_Int_Tables_number   1
_chemical_formula_structural   AlH7C13SNClO8
_chemical_formula_sum   'Al2 H14 C26 S2 N2 Cl2 O16'
_cell_volume   1197.47990794
_cell_formula_units_Z   2
loop_
 _symmetry_equiv_pos_site_id
 _symmetry_equiv_pos_as_xyz
  1  'x, y, z'
loop_
 _atom_site_type_symbol
 _atom_site_label
 _atom_site_symmetry_multiplicity
 _atom_site_fract_x
 _atom_site_fract_y
 _atom_site_fract_z
 _atom_site_occupancy
 _atom_site_pbe_bader_charge
 _atom_site_pbe_bader_spin_density
 _atom_site_pbe_cm5_charge
 _atom_site_pbe_ddec_charge
 _atom_site_pbe_ddec_spin_density
 _atom_site_pbe_ddec_sum_bond_order
 _atom_site_pbe_magmom
Al  Al0  1  0.51739323  0.48965869  0.49087848  1  2.505518  0  0.394143  1.654736  0  2.563115  0
Al  Al1  1  0.01204445  0.49365506  0.49535380  1  2.501747  0  0.40143  1.642101  0  2.557372  0
H  H2  1  0.25248438  0.57014385  0.40477293  1  0.624563  0  0.337002  0.413896  0  0.892868  0
H  H3  1  0.78838795  0.39138867  0.57428585  1  0.65582  0  0.333445  0.427578  0  0.889118  0
H  H4  1  0.94677076  0.41379526  0.73366376  1  0.16357  0  0.102696  0.10483  0  1.079982  0
H  H5  1  0.90602265  0.39715104  0.88194816  1  0.118372  0  0.111425  0.118628  0  1.00162  0
H  H6  1  0.43213690  0.54242042  0.88381966  1  0.122778  0  0.116966  0.13833  0  0.987045  0
H  H7  1  0.60483121  0.58484414  0.09605928  1  0.127906  0  0.116561  0.134413  0  0.987565  0
H  H8  1  0.26686934  0.38949906  0.10735581  1  0.091618  0  0.11309  0.121481  0  0.996398  0
H  H9  1  0.18624985  0.40035186  0.25637016  1  0.10492  0  0.113234  0.119014  0  0.983546  0
H  H10  1  0.80822663  0.77722493  0.63033597  1  0.122974  0  0.116503  0.132156  0  1.017601  0
H  H11  1  0.61456713  0.23602091  0.59510597  1  0.177244  0  0.119013  0.126059  0  1.052384  0
H  H12  1  0.23028470  0.09921204  0.42011163  1  0.080184  0  0.117024  0.122985  0  0.972212  0
H  H13  1  0.34006006  0.86603148  0.43216213  1  0.108134  0  0.113591  0.118446  0  0.986419  0
H  H14  1  0.28760891  0.77683338  0.72003613  1  0.635399  0  0.294898  0.33587  0  1.004238  0
H  H15  1  0.56740105  0.28591649  0.79078606  1  0.627919  0  0.332345  0.379309  0  0.891345  0
C  C16  1  0.63717525  0.71949135  0.50852865  1  1.53583  0  0.264474  0.632979  0  4.119797  0
C  C17  1  0.81827065  0.49281783  0.34888657  1  1.5602  0  0.270639  0.658487  0  4.086498  0
C  C18  1  0.38051094  0.26295963  0.48641692  1  1.599474  0  0.268026  0.637084  0  4.10046  0
C  C19  1  0.21827472  0.49359808  0.63694215  1  1.600684  0  0.269103  0.651042  0  4.081499  0
C  C20  1  0.20709894  0.48742643  0.72515235  1  0.004659  0  -0.012291  -0.089899  0  3.926736  0
C  C21  1  0.05140501  0.44140112  0.76773431  1  0.04549  0  -0.076691  -0.05922  0  3.961164  0
C  C22  1  0.02837816  0.43245624  0.84966296  1  -0.038323  0  -0.076407  -0.13603  0  3.919405  0
C  C23  1  0.16597200  0.46991705  0.89143846  1  0.296561  0  0.096745  0.198368  0  4.035098  0
C  C24  1  0.32814351  0.51219892  0.85047408  1  0.014903  0  -0.086909  -0.230564  0  3.951246  0
C  C25  1  0.34496496  0.52385271  0.76829841  1  0.024336  0  0.020031  0.117524  0  4.027543  0
C  C26  1  0.73086338  0.54368199  0.13188528  1  0.028995  0  -0.07952  -0.207029  0  3.923668  0
C  C27  1  0.93914734  0.48652248  0.09360232  1  0.391709  0  0.095241  0.192698  0  4.043319  0
C  C28  1  0.10603786  0.43422758  0.13800810  1  0.009734  0  -0.081145  -0.149661  0  3.951466  0
C  C29  1  0.06048805  0.44022566  0.22018974  1  -0.064507  0  -0.075312  -0.066454  0  3.980959  0
C  C30  1  0.85217781  0.49648083  0.26024768  1  0.079366  0  -0.012591  -0.102225  0  3.923805  0
C  C31  1  0.68772841  0.55020048  0.21456098  1  -0.00682  0  0.025857  0.149943  0  4.007541  0
C  C32  1  0.55958808  0.85999003  0.51291727  1  0.055769  0  0.000888  -0.066742  0  3.905095  0
C  C33  1  0.64128058  0.93146907  0.56096508  1  0.024549  0  0.014396  0.081093  0  3.921293  0
C  C34  1  0.40892336  0.92165678  0.46535895  1  -0.013747  0  -0.069511  -0.079632  0  3.957275  0
C  C35  1  0.76566296  0.87767791  0.62136827  1  0.036971  0  -0.066707  -0.107197  0  3.893843  0
C  C36  1  0.82813808  0.94997236  0.67151848  1  -0.131798  0  -0.008348  -0.082885  0  3.944781  0
C  C37  1  0.44043289  0.12384609  0.49760015  1  -0.01567  0  0.003795  -0.057508  0  3.899166  0
C  C38  1  0.34843374  0.05269654  0.45804448  1  -0.033954  0  -0.070645  -0.083395  0  3.965078  0
C  C39  1  0.58181775  0.06450482  0.55227073  1  0.027017  0  0.011531  0.075972  0  3.934615  0
C  C40  1  0.65473633  0.13568615  0.60251620  1  -0.02366  0  -0.070914  -0.113406  0  3.934031  0
C  C41  1  0.77390482  0.08176838  0.66092079  1  -0.169755  0  -0.013072  -0.102385  0  3.972656  0
S  S42  1  0.95237051  0.87155897  0.75251873  1  3.09273  0  0.538528  1.155955  0  6.005645  0
S  S43  1  0.85434654  0.18972252  0.71442420  1  3.07804  0  0.553713  1.153992  0  5.957498  0
N  N44  1  0.14986522  0.47141237  0.97524746  1  -0.472856  0  -0.137909  -0.120159  0  3.231302  0
N  N45  1  0.96181606  0.48647398  0.00974138  1  -0.451308  0  -0.136021  -0.11717  0  3.25472  0
Cl  Cl46  1  0.52804233  0.59666184  0.72557328  1  -0.175127  0  0.075123  0.016887  0  1.684102  0
Cl  Cl47  1  0.42845226  0.63233514  0.25592973  1  -0.197888  0  0.010424  -0.065511  0  1.498124  0
O  O48  1  0.50026418  0.66493826  0.50054797  1  -1.250418  0  -0.23398  -0.585683  0  2.346768  0
O  O49  1  0.97269677  0.49583943  0.38403980  1  -1.251843  0  -0.23182  -0.585169  0  2.328044  0
O  O50  1  0.18317211  0.31870045  0.48520370  1  -1.25109  0  -0.233179  -0.581545  0  2.332168  0
O  O51  1  0.39850164  0.48928932  0.59832022  1  -1.263824  0  -0.234642  -0.606478  0  2.461581  0
O  O52  1  0.52832626  0.31354539  0.48055120  1  -1.246944  0  -0.23601  -0.580091  0  2.323139  0
O  O53  1  0.05300043  0.49840164  0.60622689  1  -1.244531  0  -0.226526  -0.563135  0  2.311744  0
O  O54  1  0.83628638  0.66712136  0.50913677  1  -1.251963  0  -0.232288  -0.584076  0  2.345342  0
O  O55  1  0.63962380  0.48504466  0.38237599  1  -1.252031  0  -0.233525  -0.597599  0  2.391596  0
O  O56  1  0.24819430  0.54493757  0.45976390  1  -1.43209  0  -0.450281  -0.988977  0  2.200514  0
O  O57  1  0.78115116  0.43772010  0.52500587  1  -1.459521  0  -0.456445  -1.005167  0  2.202559  0
O  O58  1  0.19591755  0.86565377  0.72667370  1  -1.205877  0  -0.362199  -0.518357  0  2.251049  0
O  O59  1  0.86807306  0.95121174  0.82200428  1  -1.282163  0  -0.303519  -0.499251  0  2.139086  0
O  O60  1  0.94102372  0.74536018  0.75226440  1  -1.299729  0  -0.312208  -0.549078  0  2.218371  0
O  O61  1  0.69692436  0.21680602  0.79745071  1  -1.180094  0  -0.346145  -0.496374  0  2.175536  0
O  O62  1  0.06559349  0.13388050  0.73257591  1  -1.282885  0  -0.288594  -0.476842  0  2.15123  0
O  O63  1  0.80231958  0.30565852  0.67162114  1  -1.325264  0  -0.296524  -0.556965  0  2.318752  0
