# generated using pymatgen
data_Zn2H17C26(N4O)2
_symmetry_space_group_name_H-M   'P 1'
_cell_length_a   14.78340514
_cell_length_b   14.86872321
_cell_length_c   14.96216545
_cell_angle_alpha   112.85903398
_cell_angle_beta   100.92292421
_cell_angle_gamma   113.61741464
_symmetry_Int_Tables_number   1
_chemical_formula_structural   Zn2H17C26(N4O)2
_chemical_formula_sum   'Zn4 H34 C52 N16 O4'
_cell_volume   2534.12769479
_cell_formula_units_Z   2
loop_
 _symmetry_equiv_pos_site_id
 _symmetry_equiv_pos_as_xyz
  1  'x, y, z'
loop_
 _atom_site_type_symbol
 _atom_site_label
 _atom_site_symmetry_multiplicity
 _atom_site_fract_x
 _atom_site_fract_y
 _atom_site_fract_z
 _atom_site_occupancy
 _atom_site_pbe_bader_charge
 _atom_site_pbe_bader_spin_density
 _atom_site_pbe_cm5_charge
 _atom_site_pbe_ddec_charge
 _atom_site_pbe_ddec_spin_density
 _atom_site_pbe_ddec_sum_bond_order
 _atom_site_pbe_magmom
C  C0  1  0.09748507  0.38819005  0.17531317  1  0.428126  0  0.0635  -0.055037  0  4.018016  0
C  C1  1  0.85154746  0.99666850  0.31536162  1  -0.040346  0  -0.043083  -0.050666  0  4.107685  0
C  C2  1  0.30261085  0.24249732  0.30683405  1  0.07148  0  -0.019555  -0.032539  0  4.021614  0
C  C3  1  0.05319114  0.39007756  0.25394681  1  1.421194  0  0.2337  0.558754  0  4.131214  0
C  C4  1  0.37985200  0.26050516  0.16547817  1  1.470998  0  0.233707  0.567533  0  4.147062  0
C  C5  1  0.89912817  0.00683315  0.70737278  1  0.006081  0  -0.038497  -0.043674  0  4.075531  0
C  C6  1  0.69654568  0.99017616  0.89228942  1  0.047911  0  -0.036028  -0.032175  0  4.08236  0
C  C7  1  0.29203000  0.97064103  0.82578544  1  0.020169  0  -0.040849  -0.038247  0  4.115784  0
C  C8  1  0.49462099  0.87707080  0.81083161  1  -0.038648  0  -0.019149  0.019591  0  3.896148  0
C  C9  1  0.39600986  0.87157311  0.79501005  1  -0.027934  0  -0.021672  0.016481  0  3.906657  0
C  C10  1  0.29777687  0.22123313  0.20469874  1  0.415005  0  0.074755  -0.026286  0  4.000669  0
C  C11  1  0.59258316  0.97746287  0.84759084  1  0.000966  0  -0.014725  0.03415  0  4.066716  0
C  C12  1  0.38574977  0.96589466  0.81372607  1  0.038634  0  -0.018561  0.029457  0  4.080041  0
C  C13  1  0.58055153  0.06928870  0.85357759  1  -0.04394  0  -0.10328  -0.148349  0  4.029043  0
C  C14  1  0.48176862  0.06356272  0.83714445  1  -0.094355  0  -0.103921  -0.148397  0  4.030696  0
C  C15  1  0.33678584  0.75161736  0.77721090  1  -0.045637  0  -0.157288  -0.192433  0  3.90849  0
C  C16  1  0.44817422  0.75752537  0.79444045  1  -0.062489  0  -0.156001  -0.192928  0  3.898258  0
C  C17  1  0.50749498  0.38078255  0.58693522  1  -0.048286  0  -0.094683  -0.136645  0  4.002339  0
C  C18  1  0.22123967  0.72626239  0.12017153  1  -0.022851  0  -0.096889  -0.137177  0  3.997618  0
C  C19  1  0.41700816  0.29929892  0.49045461  1  -0.033548  0  -0.092339  -0.13016  0  3.991895  0
C  C20  1  0.23063946  0.64028089  0.12909393  1  -0.079484  0  -0.095151  -0.131184  0  4.000475  0
C  C21  1  0.39774477  0.32260383  0.40873306  1  0.021919  0  -0.011144  0.082372  0  4.040765  0
C  C22  1  0.15944667  0.57102166  0.15747999  1  0.01665  0  -0.017682  0.070129  0  4.04983  0
C  C23  1  0.78330367  0.63868104  0.70822938  1  0.36081  0  0.004136  -0.064752  0  4.016407  0
C  C24  1  0.03353982  0.84602008  0.12929206  1  0.405352  0  0.00822  -0.047912  0  3.965131  0
C  C25  1  0.47106633  0.43084775  0.42758441  1  -0.034287  0  -0.096406  -0.124469  0  4.020552  0
C  C26  1  0.67953088  0.57634257  0.70258903  1  0.02231  0  -0.038259  -0.041733  0  4.104219  0
C  C27  1  0.08545951  0.59984064  0.18648302  1  0.011735  0  -0.09884  -0.128107  0  4.009618  0
C  C28  1  0.56124221  0.51136564  0.52297059  1  -0.074903  0  -0.098256  -0.139907  0  4.018017  0
C  C29  1  0.07667220  0.68598295  0.17830895  1  -0.086262  0  -0.096599  -0.130925  0  3.999441  0
C  C30  1  0.58168498  0.48775946  0.60445888  1  0.011761  0  -0.012328  0.084332  0  4.049086  0
C  C31  1  0.14014771  0.74754556  0.13957492  1  0.016253  0  -0.008823  0.088771  0  4.039481  0
C  C32  1  0.10963062  0.81634624  0.10787474  1  0.014726  0  -0.037632  -0.045482  0  4.070847  0
C  C33  1  0.79863669  0.89627527  0.41406256  1  -0.02405  0  -0.102177  -0.140196  0  4.022221  0
C  C34  1  0.80914580  0.89882496  0.50937708  1  -0.046138  0  -0.100003  -0.133554  0  4.014999  0
C  C35  1  0.86403324  0.00315307  0.60718237  1  -0.019096  0  -0.013505  0.083029  0  4.046235  0
C  C36  1  0.84242894  0.99793551  0.41128504  1  -0.014771  0  -0.017725  0.078469  0  4.062936  0
C  C37  1  0.89668171  0.10378668  0.60291521  1  -0.039885  0  -0.099342  -0.136565  0  4.009067  0
C  C38  1  0.88633744  0.10123613  0.50747771  1  -0.050071  0  -0.099867  -0.137093  0  4.013494  0
C  C39  1  0.97985761  0.10256843  0.80680884  1  0.438057  0  0.004186  -0.0506  0  3.969298  0
C  C40  1  0.91020129  0.09054127  0.30450746  1  0.427618  0  0.0015  -0.055795  0  3.983854  0
C  C41  1  0.71539009  0.90210623  0.88323951  1  0.387405  0  0.004944  -0.05068  0  3.962803  0
C  C42  1  0.18932166  0.88146301  0.80011033  1  0.365538  0  -0.000326  -0.066701  0  4.005755  0
C  C43  1  0.87854289  0.91381512  0.72222780  1  0.386519  0  0.003182  -0.050463  0  3.97021  0
C  C44  1  0.81595988  0.90154025  0.21530624  1  0.405853  0  -0.002601  -0.0702  0  4.018735  0
C  C45  1  0.79487701  0.09082984  0.97188837  1  0.429851  0  0.008608  -0.04502  0  3.955047  0
C  C46  1  0.29067733  0.06999144  0.88433943  1  0.394915  0  0.001901  -0.050819  0  3.980218  0
C  C47  1  0.69287240  0.62834209  0.80887771  1  0.439263  0  0.002745  -0.066754  0  4.008114  0
C  C48  1  0.12692631  0.84353392  0.02989494  1  0.40568  0  0.007009  -0.047844  0  3.951309  0
C  C49  1  0.18465384  0.40259512  0.07216461  1  0.389343  0  0.005887  -0.071968  0  3.960457  0
C  C50  1  0.19332868  0.18842434  0.28972933  1  0.345817  0  0.011686  -0.054845  0  3.9422  0
C  C51  1  0.15242285  0.46481776  0.14248862  1  0.027577  0  -0.017587  -0.02168  0  4.01529  0
H  H52  1  0.30636661  0.74527421  0.83755109  1  0.031769  0  0.088158  0.089917  0  0.997157  0
H  H53  1  0.27581540  0.77544584  0.09470797  1  0.054822  0  0.099747  0.100964  0  0.999142  0
H  H54  1  0.52259975  0.36019985  0.64860110  1  0.052486  0  0.100169  0.101866  0  0.998006  0
H  H55  1  0.36194675  0.21558938  0.47751420  1  0.05984  0  0.103606  0.106645  0  0.991505  0
H  H56  1  0.29276431  0.62439062  0.11093905  1  0.049163  0  0.098441  0.096262  0  1.005137  0
H  H57  1  0.45511078  0.45254247  0.36700167  1  0.047563  0  0.098515  0.097612  0  1.002185  0
H  H58  1  0.03012943  0.55029712  0.21075897  1  0.051777  0  0.093538  0.096029  0  1.03981  0
H  H59  1  0.44831721  0.69402309  0.72504295  1  0.036252  0  0.090865  0.095789  0  0.990886  0
H  H60  1  0.61583068  0.59565974  0.53669271  1  0.047653  0  0.09658  0.096128  0  1.010079  0
H  H61  1  0.01391980  0.70074391  0.19585929  1  0.037493  0  0.097795  0.096312  0  1.008655  0
H  H62  1  0.76044432  0.81382207  0.34075842  1  0.023694  0  0.093856  0.091866  0  1.013075  0
H  H63  1  0.77946845  0.81828902  0.50841318  1  0.051306  0  0.093871  0.091322  0  1.014171  0
H  H64  1  0.93489377  0.18622719  0.67621324  1  0.049015  0  0.097219  0.096976  0  1.005535  0
H  H65  1  0.91655432  0.18166171  0.50812894  1  0.047435  0  0.095516  0.09497  0  1.007762  0
H  H66  1  0.81080541  0.62626556  0.64440950  1  0.084397  0  0.117346  0.105436  0  0.995981  0
H  H67  1  0.99710180  0.84153282  0.18521364  1  0.08208  0  0.115646  0.101944  0  1.008409  0
H  H68  1  0.02136539  0.19303229  0.83278412  1  0.079506  0  0.112396  0.097893  0  1.015261  0
H  H69  1  0.95287906  0.18186821  0.36146724  1  0.094309  0  0.112392  0.102524  0  1.016558  0
H  H70  1  0.66269051  0.80999197  0.83046531  1  0.095255  0  0.113089  0.099311  0  1.030792  0
H  H71  1  0.15404883  0.78930487  0.75543282  1  0.101646  0  0.112701  0.100653  0  1.009346  0
H  H72  1  0.82133915  0.82270179  0.66750036  1  0.086346  0  0.10931  0.090571  0  1.035395  0
H  H73  1  0.76791036  0.81055200  0.18621616  1  0.078251  0  0.112118  0.099004  0  1.00917  0
H  H74  1  0.81713697  0.17971794  0.00615844  1  0.048542  0  0.114686  0.102145  0  1.002755  0
H  H75  1  0.27143008  0.68426706  0.69795362  1  0.039429  0  0.086423  0.087087  0  0.99872  0
H  H76  1  0.35419699  0.15916896  0.92345201  1  0.105151  0  0.112666  0.110193  0  1.023438  0
H  H77  1  0.63317501  0.60937153  0.84211068  1  0.083326  0  0.118346  0.108239  0  0.995195  0
H  H78  1  0.17841777  0.83399869  0.98846696  1  0.091744  0  0.115512  0.1035  0  1.011025  0
H  H79  1  0.22759595  0.42586325  0.02585727  1  0.078981  0  0.118749  0.109518  0  0.996839  0
H  H80  1  0.15776117  0.18506042  0.34646493  1  0.103973  0  0.120591  0.113323  0  0.99582  0
H  H81  1  0.48212370  0.75422566  0.86440465  1  0.055161  0  0.089614  0.092379  0  0.995515  0
H  H82  1  0.65176499  0.14929605  0.87565755  1  0.06037  0  0.094825  0.096851  0  1.006402  0
H  H83  1  0.47946899  0.13918195  0.84680393  1  0.043496  0  0.093153  0.094193  0  1.011094  0
H  H84  1  0.03668841  0.47667306  0.37271647  1  0.637126  0  0.354926  0.38619  0  0.839633  0
H  H85  1  0.52546549  0.31195395  0.18767501  1  0.623448  0  0.35121  0.384018  0  0.843266  0
N  N86  1  0.09663152  0.28937179  0.12413287  1  -0.686423  0  -0.237157  -0.188283  0  3.485481  0
N  N87  1  0.90976848  0.05407523  0.20682547  1  -0.720987  0  -0.264788  -0.173639  0  3.506693  0
N  N88  1  0.00610778  0.06804607  0.87343281  1  -0.781629  0  -0.279108  -0.188518  0  3.606723  0
N  N89  1  0.81569374  0.94736091  0.95322883  1  -0.77155  0  -0.283355  -0.183693  0  3.635935  0
N  N90  1  0.13251862  0.92512410  0.84045235  1  -0.809215  0  -0.279148  -0.178349  0  3.586047  0
N  N91  1  0.94377758  0.95190903  0.82122987  1  -0.79404  0  -0.282023  -0.175827  0  3.628023  0
N  N92  1  0.85098560  0.93678534  0.15144556  1  -0.860333  0  -0.279359  -0.173802  0  3.597944  0
N  N93  1  0.19300909  0.16033179  0.13458626  1  -0.729801  0  -0.25144  -0.176477  0  3.576928  0
N  N94  1  0.86458066  0.06349424  0.00792891  1  -0.806835  0  -0.276115  -0.173013  0  3.613769  0
N  N95  1  0.19603358  0.04253591  0.89388882  1  -0.780475  0  -0.268451  -0.173866  0  3.526248  0
N  N96  1  0.79627283  0.71563598  0.87231276  1  -0.789564  0  -0.274715  -0.177139  0  3.53503  0
N  N97  1  0.06365549  0.88290269  0.00574932  1  -0.80028  0  -0.282169  -0.181892  0  3.600914  0
N  N98  1  0.15066790  0.29890767  0.06316981  1  -0.724467  0  -0.231733  -0.118676  0  3.529086  0
N  N99  1  0.12952486  0.14126935  0.18657289  1  -0.710385  0  -0.250025  -0.149181  0  3.573075  0
N  N100  1  0.85254631  0.72109119  0.80946053  1  -0.793744  0  -0.274381  -0.168437  0  3.559427  0
N  N101  1  0.00634489  0.88422891  0.06695593  1  -0.766596  0  -0.281446  -0.176503  0  3.632956  0
O  O102  1  0.00577756  0.30374179  0.26135922  1  -1.154088  0  -0.292382  -0.491193  0  2.249545  0
O  O103  1  0.06815701  0.49076583  0.32399609  1  -1.127678  0  -0.31328  -0.444127  0  2.256268  0
O  O104  1  0.36131158  0.27038425  0.08670176  1  -1.147545  0  -0.286968  -0.503018  0  2.181928  0
O  O105  1  0.47864223  0.28590923  0.22169343  1  -1.117415  0  -0.322162  -0.458683  0  2.23391  0
Zn  Zn106  1  0.99319729  0.14938350  0.14516917  1  1.244308  0  0.719018  0.644826  0  2.452067  0
Zn  Zn107  1  0.15426819  0.14816217  0.99036949  1  1.223792  0  0.733774  0.638927  0  2.380837  0
Zn  Zn108  1  0.99711363  0.86455447  0.86496059  1  1.187851  0  0.742605  0.597362  0  2.509956  0
Zn  Zn109  1  0.86138852  0.86522269  0.01239864  1  1.185757  0  0.742338  0.592465  0  2.524433  0
