# generated using pymatgen
data_ZnH20C28(NO2)2
_symmetry_space_group_name_H-M   'P 1'
_cell_length_a   5.79468201
_cell_length_b   14.02314902
_cell_length_c   20.74138182
_cell_angle_alpha   93.70354579
_cell_angle_beta   89.97626658
_cell_angle_gamma   102.01984888
_symmetry_Int_Tables_number   1
_chemical_formula_structural   ZnH20C28(NO2)2
_chemical_formula_sum   'Zn2 H40 C56 N4 O8'
_cell_volume   1644.89645341
_cell_formula_units_Z   2
loop_
 _symmetry_equiv_pos_site_id
 _symmetry_equiv_pos_as_xyz
  1  'x, y, z'
loop_
 _atom_site_type_symbol
 _atom_site_label
 _atom_site_symmetry_multiplicity
 _atom_site_fract_x
 _atom_site_fract_y
 _atom_site_fract_z
 _atom_site_occupancy
 _atom_site_pbe_bader_charge
 _atom_site_pbe_bader_spin_density
 _atom_site_pbe_cm5_charge
 _atom_site_pbe_ddec_charge
 _atom_site_pbe_ddec_spin_density
 _atom_site_pbe_ddec_sum_bond_order
 _atom_site_pbe_magmom
Zn  Zn0  1  0.22393525  0.00056799  0.75002053  1  1.244953  0  0.689102  0.746022  0  2.407262  0
Zn  Zn1  1  0.77608080  0.99945264  0.24996902  1  1.245207  0  0.68907  0.745906  0  2.407433  0
H  H2  1  0.29044968  0.13429654  0.86883388  1  0.104279  0  0.118895  0.090267  0  1.017352  0
H  H3  1  0.09211942  0.25478195  0.92480933  1  0.0697  0  0.110546  0.11821  0  1.001354  0
H  H4  1  0.60882363  0.21429050  0.76075500  1  0.083047  0  0.11232  0.121331  0  0.987766  0
H  H5  1  0.83318037  0.09650078  0.71097635  1  0.180394  0  0.124334  0.111369  0  1.00533  0
H  H6  1  0.55770886  0.33067234  0.84668901  1  0.056823  0  0.101167  0.098263  0  1.015618  0
H  H7  1  0.87842804  0.34329904  0.96686980  1  0.061399  0  0.105247  0.101232  0  1.008667  0
H  H8  1  0.35877351  0.42884727  0.89050835  1  0.05947  0  0.103178  0.103423  0  1.007829  0
H  H9  1  0.83532487  0.45033536  0.05335471  1  0.073577  0  0.105069  0.107409  0  0.994083  0
H  H10  1  0.71015185  0.96729473  0.59800092  1  0.10489  0  0.096534  0.10458  0  1.038363  0
H  H11  1  0.15480472  0.07890716  0.51285081  1  0.090875  0  0.098682  0.103915  0  1.019402  0
H  H12  1  0.15592798  0.86640461  0.63143408  1  0.109725  0  0.118967  0.089392  0  1.017765  0
H  H13  1  0.83650239  0.74552794  0.57562647  1  0.081719  0  0.110619  0.118652  0  1.001505  0
H  H14  1  0.39275866  0.78697157  0.73930726  1  0.085113  0  0.112378  0.121497  0  0.988267  0
H  H15  1  0.73543986  0.90511968  0.78892932  1  0.177169  0  0.124274  0.111533  0  1.005042  0
H  H16  1  0.22512686  0.66980077  0.65347759  1  0.039748  0  0.101303  0.098497  0  1.015122  0
H  H17  1  0.53472682  0.65753107  0.53350583  1  0.04366  0  0.105056  0.10079  0  1.008744  0
H  H18  1  0.92712149  0.57193682  0.60907848  1  0.062236  0  0.103305  0.103483  0  1.007811  0
H  H19  1  0.38669071  0.54968977  0.44730002  1  0.074324  0  0.105428  0.107648  0  0.994754  0
H  H20  1  0.74243911  0.03380255  0.90193268  1  0.099728  0  0.096233  0.103764  0  1.038384  0
H  H21  1  0.07556631  0.92053273  0.98722978  1  0.091511  0  0.098698  0.103492  0  1.019985  0
H  H22  1  0.70954858  0.86571619  0.13115971  1  0.104041  0  0.118949  0.090392  0  1.017316  0
H  H23  1  0.90787613  0.74522882  0.07518795  1  0.069721  0  0.11053  0.118221  0  1.001406  0
H  H24  1  0.39116933  0.78573228  0.23924637  1  0.081432  0  0.112273  0.121132  0  0.987946  0
H  H25  1  0.16680594  0.90352251  0.28901540  1  0.180752  0  0.124329  0.111328  0  1.005328  0
H  H26  1  0.44232889  0.66936745  0.15328938  1  0.057042  0  0.101188  0.098415  0  1.015567  0
H  H27  1  0.12155989  0.65671030  0.03312153  1  0.061492  0  0.105295  0.101216  0  1.008668  0
H  H28  1  0.64122892  0.57116687  0.10948007  1  0.059649  0  0.103181  0.103506  0  1.007716  0
H  H29  1  0.16468161  0.54968340  0.94663223  1  0.073457  0  0.105103  0.107399  0  0.994082  0
H  H30  1  0.28981343  0.03272790  0.40198448  1  0.104769  0  0.096474  0.104621  0  1.038187  0
H  H31  1  0.84516503  0.92112094  0.48713223  1  0.090886  0  0.098697  0.104029  0  1.019196  0
H  H32  1  0.84411122  0.13356938  0.36857404  1  0.109899  0  0.118904  0.089477  0  1.017665  0
H  H33  1  0.16355603  0.25441216  0.42439277  1  0.081218  0  0.110609  0.118544  0  1.001614  0
H  H34  1  0.60728545  0.21304654  0.26069607  1  0.084917  0  0.112365  0.121461  0  0.988235  0
H  H35  1  0.26456613  0.09492219  0.21106138  1  0.176787  0  0.124397  0.111784  0  1.004722  0
H  H36  1  0.77490327  0.33017924  0.34654661  1  0.040426  0  0.101399  0.098641  0  1.015241  0
H  H37  1  0.46529679  0.34240847  0.46651771  1  0.044099  0  0.105037  0.100777  0  1.008738  0
H  H38  1  0.07290112  0.42802481  0.39096228  1  0.062552  0  0.103365  0.103601  0  1.007776  0
H  H39  1  0.61333472  0.45027060  0.55273915  1  0.075175  0  0.105362  0.1078  0  0.994636  0
H  H40  1  0.25749379  0.96618655  0.09806098  1  0.099887  0  0.096259  0.103891  0  1.03826  0
H  H41  1  0.92435344  0.07945424  0.01276318  1  0.091195  0  0.098711  0.103672  0  1.020209  0
C  C42  1  0.13942507  0.15499576  0.84651890  1  0.435756  0  0.044718  0.086526  0  3.966032  0
C  C43  1  0.02695401  0.22247385  0.87740875  1  0.049818  0  -0.081942  -0.177968  0  3.940382  0
C  C44  1  0.82979941  0.24670104  0.84762461  1  -0.003279  0  0.008093  0.147103  0  4.036887  0
C  C45  1  0.76118337  0.20010419  0.78644887  1  -0.03814  0  -0.077368  -0.168922  0  3.905321  0
C  C46  1  0.88402638  0.13343183  0.75821491  1  0.442363  0  0.060662  0.121865  0  3.896613  0
C  C47  1  0.69872999  0.31566742  0.87693453  1  0.005484  0  -0.089456  -0.139535  0  3.983986  0
C  C48  1  0.73826172  0.36004464  0.93707676  1  -0.092562  0  -0.078738  -0.107823  0  3.981275  0
C  C49  1  0.61341963  0.43006997  0.96767313  1  -0.065901  0  -0.010788  0.102815  0  4.044004  0
C  C50  1  0.42236638  0.45974987  0.93841127  1  0.013917  0  -0.086903  -0.123402  0  3.971451  0
C  C51  1  0.68733714  0.47208364  0.02999217  1  -0.05013  0  -0.083929  -0.125108  0  3.977542  0
C  C52  1  0.32994018  0.04758946  0.62715521  1  1.527138  0  0.187965  0.545883  0  4.244365  0
C  C53  1  0.42435876  0.02583546  0.56166315  1  -0.006607  0  -0.023101  -0.034468  0  3.975268  0
C  C54  1  0.61810502  0.98055029  0.55486252  1  0.007915  0  -0.091376  -0.09559  0  3.972223  0
C  C55  1  0.30728326  0.04522134  0.50637457  1  -0.139842  0  -0.090893  -0.104064  0  3.984731  0
C  C56  1  0.98389556  0.84578716  0.65371833  1  0.478068  0  0.044322  0.087411  0  3.963999  0
C  C57  1  0.80360113  0.77808847  0.62293958  1  -0.047479  0  -0.08279  -0.180453  0  3.941393  0
C  C58  1  0.58171255  0.75403951  0.65263042  1  -0.042605  0  0.008295  0.148688  0  4.0349  0
C  C59  1  0.55963438  0.80098528  0.71367458  1  0.055104  0  -0.077855  -0.170456  0  3.904114  0
C  C60  1  0.74947424  0.86788336  0.74180527  1  0.421323  0  0.060319  0.121677  0  3.895655  0
C  C61  1  0.38150634  0.68493682  0.62327576  1  0.024627  0  -0.089364  -0.140343  0  3.982285  0
C  C62  1  0.37730150  0.64054180  0.56315590  1  -0.091055  0  -0.07843  -0.106884  0  3.97902  0
C  C63  1  0.18275742  0.57022395  0.53245142  1  -0.026266  0  -0.010298  0.104489  0  4.043471  0
C  C64  1  0.96111663  0.54066732  0.56139390  1  -0.017729  0  -0.087096  -0.123719  0  3.972006  0
C  C65  1  0.21618636  0.52784484  0.47034847  1  -0.047998  0  -0.084947  -0.126523  0  3.977978  0
C  C66  1  0.28172820  0.95304839  0.87288589  1  1.557692  0  0.188019  0.544931  0  4.248553  0
C  C67  1  0.39810428  0.97451630  0.93834535  1  -0.08553  0  -0.022624  -0.033813  0  3.976253  0
C  C68  1  0.63736735  0.01998718  0.94509760  1  -0.087512  0  -0.09168  -0.09553  0  3.973399  0
C  C69  1  0.26183078  0.95457497  0.99366336  1  0.016522  0  -0.091041  -0.103825  0  3.985853  0
C  C70  1  0.86056755  0.84502292  0.15347432  1  0.435559  0  0.044635  0.086287  0  3.966296  0
C  C71  1  0.97303906  0.77754227  0.12258713  1  0.040143  0  -0.081819  -0.177836  0  3.940501  0
C  C72  1  0.17021124  0.75332261  0.15237007  1  0.007443  0  0.008169  0.147097  0  4.037116  0
C  C73  1  0.23883986  0.79992044  0.21354398  1  -0.036846  0  -0.077198  -0.168531  0  3.905485  0
C  C74  1  0.11596766  0.86658624  0.24177729  1  0.441944  0  0.060698  0.1219  0  3.896709  0
C  C75  1  0.30127005  0.68435570  0.12305285  1  0.005829  0  -0.089621  -0.139858  0  3.984154  0
C  C76  1  0.26172801  0.63996141  0.06291714  1  -0.093467  0  -0.07879  -0.107709  0  3.981211  0
C  C77  1  0.38658745  0.56994314  0.03231760  1  -0.065314  0  -0.010792  0.102416  0  4.04442  0
C  C78  1  0.57767457  0.54028256  0.06157268  1  0.014135  0  -0.086763  -0.123034  0  3.971644  0
C  C79  1  0.31264931  0.52792617  0.97000114  1  -0.04966  0  -0.08384  -0.12461  0  3.977271  0
C  C80  1  0.66999906  0.95242255  0.37282671  1  1.527411  0  0.188154  0.546136  0  4.243911  0
C  C81  1  0.57563526  0.97420315  0.43831852  1  -0.006438  0  -0.023458  -0.034596  0  3.974529  0
C  C82  1  0.38187783  0.01948327  0.44512397  1  0.007083  0  -0.091305  -0.095863  0  3.971878  0
C  C83  1  0.69270509  0.95481974  0.49361073  1  -0.13996  0  -0.090691  -0.104109  0  3.984247  0
C  C84  1  0.01613788  0.15419941  0.34628379  1  0.477915  0  0.044338  0.087165  0  3.963838  0
C  C85  1  0.19643564  0.22188412  0.37706792  1  -0.047276  0  -0.08274  -0.180328  0  3.941373  0
C  C86  1  0.41833693  0.24594465  0.34738452  1  -0.041401  0  0.00811  0.148769  0  4.034553  0
C  C87  1  0.44040016  0.19903096  0.28632614  1  0.054166  0  -0.077638  -0.170255  0  3.903898  0
C  C88  1  0.25055052  0.13214776  0.25818871  1  0.421774  0  0.060014  0.121197  0  3.895837  0
C  C89  1  0.61855570  0.31502425  0.37675236  1  0.022777  0  -0.089521  -0.140542  0  3.982735  0
C  C90  1  0.62276380  0.35939487  0.43687849  1  -0.090895  0  -0.078313  -0.106917  0  3.979007  0
C  C91  1  0.81729216  0.42971237  0.46759696  1  -0.026226  0  -0.010349  0.10436  0  4.04333  0
C  C92  1  0.03893708  0.45927719  0.43865385  1  -0.016429  0  -0.087039  -0.123711  0  3.972145  0
C  C93  1  0.78384889  0.47211104  0.52969122  1  -0.049296  0  -0.084693  -0.126543  0  3.978124  0
C  C94  1  0.71821216  0.04694182  0.12710498  1  1.557626  0  0.188109  0.545014  0  4.248823  0
C  C95  1  0.60184462  0.02546340  0.06164689  1  -0.051406  0  -0.022551  -0.03366  0  3.976403  0
C  C96  1  0.36258334  0.97999611  0.05489548  1  -0.121001  0  -0.091691  -0.095625  0  3.973391  0
C  C97  1  0.73811154  0.04540194  0.00632763  1  0.016876  0  -0.091054  -0.104024  0  3.986425  0
N  N98  1  0.07018748  0.11064296  0.78786715  1  -1.246404  0  -0.330271  -0.235451  0  3.570364  0
N  N99  1  0.95885782  0.89051927  0.71222290  1  -1.241253  0  -0.329149  -0.233808  0  3.567512  0
N  N100  1  0.92980399  0.88937340  0.21212681  1  -1.246489  0  -0.330472  -0.23551  0  3.570717  0
N  N101  1  0.04117401  0.10948812  0.28777209  1  -1.240755  0  -0.32902  -0.233572  0  3.567572  0
O  O102  1  0.43663871  0.01876275  0.67574796  1  -1.180941  0  -0.344653  -0.569001  0  2.330077  0
O  O103  1  0.15297633  0.08513514  0.63296183  1  -1.164362  0  -0.332295  -0.555824  0  2.119084  0
O  O104  1  0.41755698  0.98198100  0.82429844  1  -1.174137  0  -0.344494  -0.568556  0  2.331889  0
O  O105  1  0.06692971  0.91556198  0.86708246  1  -1.181509  0  -0.33244  -0.555319  0  2.120556  0
O  O106  1  0.56333929  0.98126801  0.32423728  1  -1.181763  0  -0.344792  -0.569066  0  2.330019  0
O  O107  1  0.84689026  0.91483529  0.36701642  1  -1.164132  0  -0.332291  -0.555919  0  2.118904  0
O  O108  1  0.58240323  0.01800405  0.17569240  1  -1.174275  0  -0.344474  -0.568582  0  2.33209  0
O  O109  1  0.93300413  0.08443586  0.13291207  1  -1.181078  0  -0.332612  -0.555528  0  2.120569  0
