# generated using pymatgen
data_Cd2B2H48C55N6(O2F)4
_symmetry_space_group_name_H-M   'P 1'
_cell_length_a   13.86644641
_cell_length_b   19.72747419
_cell_length_c   21.26693838
_cell_angle_alpha   90.00017728
_cell_angle_beta   90.00027747
_cell_angle_gamma   97.43776157
_symmetry_Int_Tables_number   1
_chemical_formula_structural   Cd2B2H48C55N6(O2F)4
_chemical_formula_sum   'Cd8 B8 H192 C220 N24 O32 F16'
_cell_volume   5768.62154811
_cell_formula_units_Z   4
loop_
 _symmetry_equiv_pos_site_id
 _symmetry_equiv_pos_as_xyz
  1  'x, y, z'
loop_
 _atom_site_type_symbol
 _atom_site_label
 _atom_site_symmetry_multiplicity
 _atom_site_fract_x
 _atom_site_fract_y
 _atom_site_fract_z
 _atom_site_occupancy
  Cd  Cd0  1  0.49877094  0.40013454  0.09451522  1
  Cd  Cd1  1  0.30140509  0.51253586  0.97809499  1
  Cd  Cd2  1  0.00125630  0.09987644  0.59452531  1
  Cd  Cd3  1  0.19858674  0.98746474  0.47808184  1
  Cd  Cd4  1  0.50124396  0.59986647  0.90548649  1
  Cd  Cd5  1  0.69860066  0.48747070  0.02191565  1
  Cd  Cd6  1  0.99876861  0.90014098  0.40548486  1
  Cd  Cd7  1  0.80140276  0.01252689  0.52192974  1
  B  B8  1  0.16371116  0.15773430  0.14369019  1
  B  B9  1  0.63285235  0.14713884  0.84795121  1
  B  B10  1  0.33628279  0.34226540  0.64368419  1
  B  B11  1  0.86715622  0.35286214  0.34795372  1
  B  B12  1  0.83628653  0.84226301  0.85631011  1
  B  B13  1  0.36715074  0.85286055  0.15205144  1
  B  B14  1  0.66371117  0.65773545  0.35631188  1
  B  B15  1  0.13284829  0.64714134  0.65204752  1
  H  H16  1  0.54766497  0.32572413  0.68459260  1
  H  H17  1  0.58469329  0.42918020  0.61937515  1
  H  H18  1  0.74566104  0.50162708  0.62889733  1
  H  H19  1  0.86874410  0.46975509  0.70460655  1
  H  H20  1  0.82978540  0.36482460  0.77040001  1
  H  H21  1  0.59664823  0.97246831  0.45319265  1
  H  H22  1  0.45538967  0.02487969  0.41089865  1
  H  H23  1  0.62404753  0.22264254  0.44053253  1
  H  H24  1  0.75640028  0.16156541  0.48324402  1
  H  H25  1  0.38644586  0.15833204  0.43229485  1
  H  H26  1  0.46859441  0.21816711  0.39056410  1
  H  H27  1  0.34289526  0.15720975  0.31903965  1
  H  H28  1  0.37040289  0.07771402  0.34516322  1
  H  H29  1  0.46057731  0.08410615  0.25334245  1
  H  H30  1  0.54943288  0.12417335  0.30484278  1
  H  H31  1  0.58176731  0.26034453  0.30121768  1
  H  H32  1  0.57545448  0.36093030  0.23042295  1
  H  H33  1  0.40610222  0.24439757  0.10029188  1
  H  H34  1  0.39640086  0.14038112  0.16745842  1
  H  H35  1  0.13641531  0.20407973  0.02043317  1
  H  H36  1  0.26418528  0.21323573  0.01184400  1
  H  H37  1  0.20010403  0.28099461  0.98785613  1
  H  H38  1  0.36021222  0.40948795  0.22408843  1
  H  H39  1  0.23828520  0.41624845  0.24393454  1
  H  H40  1  0.29020980  0.45427580  0.17347649  1
  H  H41  1  0.08317929  0.32075139  0.32228676  1
  H  H42  1  0.12294774  0.39414256  0.41493026  1
  H  H43  1  0.29362535  0.41437886  0.45548647  1
  H  H44  1  0.42509298  0.36541610  0.39782246  1
  H  H45  1  0.38483244  0.29283374  0.30358305  1
  H  H46  1  0.24062584  0.20749766  0.39015699  1
  H  H47  1  0.16840064  0.13273501  0.42020575  1
  H  H48  1  0.11523304  0.20701160  0.40137749  1
  H  H49  1  0.09947823  0.02812600  0.14768436  1
  H  H50  1  0.00277776  0.00328517  0.20209351  1
  H  H51  1  0.11494014  0.97308236  0.21307175  1
  H  H52  1  0.47164905  0.17866034  0.98249928  1
  H  H53  1  0.58179022  0.20683572  0.02023969  1
  H  H54  1  0.57624424  0.13741329  0.96528675  1
  H  H55  1  0.70113418  0.42848411  0.84666522  1
  H  H56  1  0.59057949  0.43960688  0.88472930  1
  H  H57  1  0.59246613  0.41797308  0.80301371  1
  H  H58  1  0.71176434  0.02501410  0.81194221  1
  H  H59  1  0.70615970  0.99462314  0.73207127  1
  H  H60  1  0.59898508  0.00983951  0.77333655  1
  H  H61  1  0.70499722  0.27855249  0.61891008  1
  H  H62  1  0.77718247  0.21563288  0.59063006  1
  H  H63  1  0.82450074  0.27788435  0.64652544  1
  H  H64  1  0.95233041  0.17426997  0.18459111  1
  H  H65  1  0.91529214  0.07080489  0.11938406  1
  H  H66  1  0.75432306  0.99836067  0.12891636  1
  H  H67  1  0.63124690  0.03024213  0.20462854  1
  H  H68  1  0.67022326  0.13517606  0.27041396  1
  H  H69  1  0.90334357  0.52752948  0.95318878  1
  H  H70  1  0.04460438  0.47511751  0.91089492  1
  H  H71  1  0.87595522  0.27735417  0.94053305  1
  H  H72  1  0.74360021  0.33842891  0.98324664  1
  H  H73  1  0.11354865  0.34166270  0.93229378  1
  H  H74  1  0.03139956  0.28183052  0.89056306  1
  H  H75  1  0.15710319  0.34278763  0.81903824  1
  H  H76  1  0.12959092  0.42228037  0.84516384  1
  H  H77  1  0.03942015  0.41589249  0.75334135  1
  H  H78  1  0.95056551  0.37582483  0.80484147  1
  H  H79  1  0.91823992  0.23965064  0.80121823  1
  H  H80  1  0.92455515  0.13906511  0.73042276  1
  H  H81  1  0.09389066  0.25560196  0.60028721  1
  H  H82  1  0.10359166  0.35961765  0.66745501  1
  H  H83  1  0.36357929  0.29591642  0.52042994  1
  H  H84  1  0.23580835  0.28675936  0.51184456  1
  H  H85  1  0.29988839  0.21900237  0.48785428  1
  H  H86  1  0.13978836  0.09050906  0.72408907  1
  H  H87  1  0.26171282  0.08374965  0.74393508  1
  H  H88  1  0.20978982  0.04572202  0.67347675  1
  H  H89  1  0.41682583  0.17925115  0.82228807  1
  H  H90  1  0.37705679  0.10585677  0.91492935  1
  H  H91  1  0.20637610  0.08561755  0.95548025  1
  H  H92  1  0.07490966  0.13457702  0.89781220  1
  H  H93  1  0.11517311  0.20716362  0.80357689  1
  H  H94  1  0.25938015  0.29251129  0.89015576  1
  H  H95  1  0.33161281  0.36727411  0.92019698  1
  H  H96  1  0.38477703  0.29299538  0.90137150  1
  H  H97  1  0.40051821  0.47187119  0.64767518  1
  H  H98  1  0.49721810  0.49671478  0.70208329  1
  H  H99  1  0.38505660  0.52691619  0.71306076  1
  H  H100  1  0.02836331  0.32134391  0.48250249  1
  H  H101  1  0.91821928  0.29316804  0.52024415  1
  H  H102  1  0.92376311  0.36258815  0.46528995  1
  H  H103  1  0.79886842  0.07151580  0.34666953  1
  H  H104  1  0.90942449  0.06039524  0.38473440  1
  H  H105  1  0.90753863  0.08202871  0.30301839  1
  H  H106  1  0.78823746  0.47498260  0.31194436  1
  H  H107  1  0.79384586  0.50537182  0.23207443  1
  H  H108  1  0.90101973  0.49015961  0.27333910  1
  H  H109  1  0.79501655  0.22144659  0.11890681  1
  H  H110  1  0.72281411  0.28436392  0.09063286  1
  H  H111  1  0.67551347  0.22210769  0.14652743  1
  H  H112  1  0.45233353  0.67427369  0.31540535  1
  H  H113  1  0.41530486  0.57081558  0.38062045  1
  H  H114  1  0.25433583  0.49836971  0.37109685  1
  H  H115  1  0.13124977  0.53024526  0.29538905  1
  H  H116  1  0.17021206  0.63517985  0.22960029  1
  H  H117  1  0.40335298  0.02752852  0.54680624  1
  H  H118  1  0.54461101  0.97511407  0.58909695  1
  H  H119  1  0.37594981  0.77735272  0.55946777  1
  H  H120  1  0.24359841  0.83842936  0.51675722  1
  H  H121  1  0.61355303  0.84165966  0.56770685  1
  H  H122  1  0.53140247  0.78182968  0.60943902  1
  H  H123  1  0.65710225  0.84278654  0.68096065  1
  H  H124  1  0.62959445  0.92228125  0.65483425  1
  H  H125  1  0.53942107  0.91589525  0.74665456  1
  H  H126  1  0.45056599  0.87582244  0.69515423  1
  H  H127  1  0.41824192  0.73965286  0.69878121  1
  H  H128  1  0.42456085  0.63907327  0.76957923  1
  H  H129  1  0.59388952  0.75561144  0.89971641  1
  H  H130  1  0.60358712  0.85962276  0.83254611  1
  H  H131  1  0.86357914  0.79591551  0.97956713  1
  H  H132  1  0.73580755  0.78675848  0.98815489  1
  H  H133  1  0.79988600  0.71900009  0.01214088  1
  H  H134  1  0.63978882  0.59050785  0.77590858  1
  H  H135  1  0.76171725  0.58375145  0.75606341  1
  H  H136  1  0.70979357  0.54572104  0.82652099  1
  H  H137  1  0.91682368  0.67925158  0.67771307  1
  H  H138  1  0.87705771  0.60585378  0.58507145  1
  H  H139  1  0.70637767  0.58561594  0.54451571  1
  H  H140  1  0.57491094  0.63457972  0.60217878  1
  H  H141  1  0.61516839  0.70716512  0.69641489  1
  H  H142  1  0.75937728  0.79251041  0.60984190  1
  H  H143  1  0.83160852  0.86727463  0.57980066  1
  H  H144  1  0.88477135  0.79299546  0.59862563  1
  H  H145  1  0.90052815  0.97186729  0.85232628  1
  H  H146  1  0.99722480  0.99671115  0.79791478  1
  H  H147  1  0.88506433  0.02691244  0.78694125  1
  H  H148  1  0.52835085  0.82134158  0.01750102  1
  H  H149  1  0.41820960  0.79316569  0.97976108  1
  H  H150  1  0.42375495  0.86258862  0.03471261  1
  H  H151  1  0.29886590  0.57151883  0.15333508  1
  H  H152  1  0.40942060  0.56039607  0.11527005  1
  H  H153  1  0.40753514  0.58202834  0.19698612  1
  H  H154  1  0.28823981  0.97498734  0.18806091  1
  H  H155  1  0.29384293  0.00537778  0.26793420  1
  H  H156  1  0.40101650  0.99015527  0.22666986  1
  H  H157  1  0.29500442  0.72144689  0.38108928  1
  H  H158  1  0.22281603  0.78436495  0.40937165  1
  H  H159  1  0.17549966  0.72211196  0.35347392  1
  H  H160  1  0.04767014  0.82573144  0.81540542  1
  H  H161  1  0.08470607  0.92919549  0.88061436  1
  H  H162  1  0.24567107  0.00164121  0.87108253  1
  H  H163  1  0.36875402  0.96975725  0.79537505  1
  H  H164  1  0.32977948  0.86482128  0.72958916  1
  H  H165  1  0.09664634  0.47246880  0.04680353  1
  H  H166  1  0.95538808  0.52487874  0.08909880  1
  H  H167  1  0.12404492  0.72264061  0.05946819  1
  H  H168  1  0.25639739  0.66156789  0.01675413  1
  H  H169  1  0.88644340  0.65832691  0.06770464  1
  H  H170  1  0.96859119  0.71816419  0.10943348  1
  H  H171  1  0.84289432  0.65720866  0.18095829  1
  H  H172  1  0.87040751  0.57771286  0.15483693  1
  H  H173  1  0.96057898  0.58410483  0.24665613  1
  H  H174  1  0.04943532  0.62417403  0.19515507  1
  H  H175  1  0.08175956  0.76034873  0.19878066  1
  H  H176  1  0.07543770  0.86092501  0.26957942  1
  H  H177  1  0.90610696  0.74439076  0.39971403  1
  H  H178  1  0.89640729  0.64037865  0.33254388  1
  H  H179  1  0.63641657  0.70408292  0.47956660  1
  H  H180  1  0.76418563  0.71323741  0.48815714  1
  H  H181  1  0.70010684  0.78099747  0.51214414  1
  H  H182  1  0.86021019  0.90949336  0.27591311  1
  H  H183  1  0.73828446  0.91625379  0.25606710  1
  H  H184  1  0.79020559  0.95427885  0.32652496  1
  H  H185  1  0.58317307  0.82075331  0.17771223  1
  H  H186  1  0.62294427  0.89414771  0.08506813  1
  H  H187  1  0.79362750  0.91438490  0.04451816  1
  H  H188  1  0.92508964  0.86542132  0.10218340  1
  H  H189  1  0.88482626  0.79283932  0.19642058  1
  H  H190  1  0.74062476  0.70749884  0.10984218  1
  H  H191  1  0.66839816  0.63273351  0.07979767  1
  H  H192  1  0.61523016  0.70701119  0.09862598  1
  H  H193  1  0.59947809  0.52813071  0.35231901  1
  H  H194  1  0.50278207  0.50328867  0.29790948  1
  H  H195  1  0.61494195  0.47308623  0.28693201  1
  H  H196  1  0.97163992  0.67866059  0.51749969  1
  H  H197  1  0.08178311  0.70684002  0.47976085  1
  H  H198  1  0.07623932  0.63741584  0.53471176  1
  H  H199  1  0.20113611  0.92848361  0.65333406  1
  H  H200  1  0.09057903  0.93960671  0.61526731  1
  H  H201  1  0.09246497  0.91797375  0.69698614  1
  H  H202  1  0.21175283  0.52501363  0.68805641  1
  H  H203  1  0.20615027  0.49462905  0.76792775  1
  H  H204  1  0.09897683  0.50984382  0.72666590  1
  H  H205  1  0.20499743  0.77855748  0.88108737  1
  H  H206  1  0.27718473  0.71563595  0.90936744  1
  H  H207  1  0.32450226  0.77788975  0.85347193  1
  C  C208  1  0.68740558  0.33865037  0.73148347  1
  C  C209  1  0.61794312  0.35709325  0.68922812  1
  C  C210  1  0.63921711  0.41565946  0.65234564  1
  C  C211  1  0.72942200  0.45592249  0.65753982  1
  C  C212  1  0.79847920  0.43808636  0.70015441  1
  C  C213  1  0.77710900  0.37959911  0.73693062  1
  C  C214  1  0.59922822  0.02779671  0.44927018  1
  C  C215  1  0.52103421  0.05750465  0.42591977  1
  C  C216  1  0.52736570  0.12903653  0.42218780  1
  C  C217  1  0.61412611  0.16688572  0.44274102  1
  C  C218  1  0.68870469  0.13333056  0.46629079  1
  C  C219  1  0.44458441  0.16314877  0.39663679  1
  C  C220  1  0.40273012  0.13039318  0.33540172  1
  C  C221  1  0.47925485  0.12952180  0.28278637  1
  C  C222  1  0.48748968  0.19124890  0.24107478  1
  C  C223  1  0.53965326  0.25443170  0.25778775  1
  C  C224  1  0.53762545  0.31067915  0.21844225  1
  C  C225  1  0.44160748  0.24583745  0.14600515  1
  C  C226  1  0.43826120  0.18787826  0.18337575  1
  C  C227  1  0.27481958  0.39688905  0.05664668  1
  C  C228  1  0.25081547  0.34058114  0.10222858  1
  C  C229  1  0.21486280  0.27197208  0.08648709  1
  C  C230  1  0.20248241  0.24099694  0.02310085  1
  C  C231  1  0.25526226  0.34588491  0.16819343  1
  C  C232  1  0.22108910  0.27905816  0.19165411  1
  C  C233  1  0.28686783  0.40967715  0.20437461  1
  C  C234  1  0.20725802  0.25410534  0.25320781  1
  C  C235  1  0.23135300  0.30087211  0.30747101  1
  C  C236  1  0.15808799  0.33013108  0.33882712  1
  C  C237  1  0.18077424  0.37131911  0.39150476  1
  C  C238  1  0.27644287  0.38333347  0.41352126  1
  C  C239  1  0.35001872  0.35555479  0.38144808  1
  C  C240  1  0.32764202  0.31476209  0.32851183  1
  C  C241  1  0.17120555  0.18526076  0.26444763  1
  C  C242  1  0.15264542  0.14830825  0.32202424  1
  C  C243  1  0.17051300  0.17500544  0.38693351  1
  C  C244  1  0.11618102  0.08080808  0.30496239  1
  C  C245  1  0.11410489  0.07739642  0.23781309  1
  C  C246  1  0.08174644  0.01756186  0.19711174  1
  C  C247  1  0.08221791  0.02270231  0.34659354  1
  C  C248  1  0.53740760  0.34547170  0.97923070  1
  C  C249  1  0.57293836  0.30881460  0.92519236  1
  C  C250  1  0.57660637  0.23681648  0.92428805  1
  C  C251  1  0.55082844  0.18646964  0.97550781  1
  C  C252  1  0.60929231  0.33586112  0.86735292  1
  C  C253  1  0.62310726  0.40939690  0.84938995  1
  C  C254  1  0.63241299  0.27896147  0.83132230  1
  C  C255  1  0.68619467  0.21293875  0.74372717  1
  C  C256  1  0.68757839  0.09948787  0.74243721  1
  C  C257  1  0.67646253  0.02807477  0.76598773  1
  C  C258  1  0.72226054  0.12518537  0.68292898  1
  C  C259  1  0.74903907  0.08316450  0.62951459  1
  C  C260  1  0.72333624  0.19664272  0.68349804  1
  C  C261  1  0.75849691  0.24461812  0.63172296  1
  C  C262  1  0.66805478  0.27535770  0.76978646  1
  C  C263  1  0.81259427  0.16135110  0.23148620  1
  C  C264  1  0.88204964  0.14290647  0.18923055  1
  C  C265  1  0.86077124  0.08433293  0.15235347  1
  C  C266  1  0.77056431  0.04407042  0.15755383  1
  C  C267  1  0.70151284  0.06191289  0.20017107  1
  C  C268  1  0.72289035  0.12040340  0.23694047  1
  C  C269  1  0.90076865  0.47219897  0.94926805  1
  C  C270  1  0.97896138  0.44249297  0.92591593  1
  C  C271  1  0.97263095  0.37095904  0.92218561  1
  C  C272  1  0.88587097  0.33311147  0.94273844  1
  C  C273  1  0.81129313  0.36666571  0.96629183  1
  C  C274  1  0.05540944  0.33684786  0.89663410  1
  C  C275  1  0.09726739  0.36960222  0.83540067  1
  C  C276  1  0.02074519  0.37047799  0.78278508  1
  C  C277  1  0.01250560  0.30875019  0.74107234  1
  C  C278  1  0.96034954  0.24556479  0.75778798  1
  C  C279  1  0.96237722  0.18931821  0.71843997  1
  C  C280  1  0.05838793  0.25416228  0.64600130  1
  C  C281  1  0.06173307  0.31212160  0.68337207  1
  C  C282  1  0.22517785  0.10310523  0.55664575  1
  C  C283  1  0.24918124  0.15941535  0.60222836  1
  C  C284  1  0.28513080  0.22802382  0.58648530  1
  C  C285  1  0.29751230  0.25899974  0.52309918  1
  C  C286  1  0.24473741  0.15411340  0.66819317  1
  C  C287  1  0.27891058  0.22093922  0.69165321  1
  C  C288  1  0.21313212  0.09032131  0.70437501  1
  C  C289  1  0.29274619  0.24589488  0.75320703  1
  C  C290  1  0.26865434  0.19913141  0.80747238  1
  C  C291  1  0.34191862  0.16987102  0.83882910  1
  C  C292  1  0.31923100  0.12868115  0.89150420  1
  C  C293  1  0.22355995  0.11666431  0.91351566  1
  C  C294  1  0.14998618  0.14444390  0.88144326  1
  C  C295  1  0.17236442  0.18523947  0.82850908  1
  C  C296  1  0.32879668  0.31474000  0.76444388  1
  C  C297  1  0.34735987  0.35169532  0.82202018  1
  C  C298  1  0.32949380  0.32499992  0.88692979  1
  C  C299  1  0.38382295  0.41919694  0.80495959  1
  C  C300  1  0.38589424  0.42260421  0.73780794  1
  C  C301  1  0.41824904  0.48243603  0.69710359  1
  C  C302  1  0.41778701  0.47730645  0.84659101  1
  C  C303  1  0.96260424  0.15453443  0.47923624  1
  C  C304  1  0.92707334  0.19118875  0.42519461  1
  C  C305  1  0.92340451  0.26318635  0.42428907  1
  C  C306  1  0.94918205  0.31353288  0.47551047  1
  C  C307  1  0.89071514  0.16414094  0.36735591  1
  C  C308  1  0.87689571  0.09060507  0.34939456  1
  C  C309  1  0.86759643  0.22104098  0.33132444  1
  C  C310  1  0.81380693  0.28705972  0.24373027  1
  C  C311  1  0.81242762  0.40051114  0.24243875  1
  C  C312  1  0.82354196  0.47192278  0.26598998  1
  C  C313  1  0.77774444  0.37481442  0.18292986  1
  C  C314  1  0.75096204  0.41683606  0.12951598  1
  C  C315  1  0.77666713  0.30335603  0.18349871  1
  C  C316  1  0.74150794  0.25537890  0.13172433  1
  C  C317  1  0.83194793  0.22464190  0.26979037  1
  C  C318  1  0.31259126  0.66135050  0.26851683  1
  C  C319  1  0.38205292  0.64290711  0.31077265  1
  C  C320  1  0.36077867  0.58433936  0.34765278  1
  C  C321  1  0.27057297  0.54407582  0.34245672  1
  C  C322  1  0.20151603  0.56191349  0.29984354  1
  C  C323  1  0.22288666  0.62040329  0.26306968  1
  C  C324  1  0.40077345  0.97219858  0.55072729  1
  C  C325  1  0.47896656  0.94248961  0.57407865  1
  C  C326  1  0.47263372  0.87095824  0.57781109  1
  C  C327  1  0.38587241  0.83310802  0.55725928  1
  C  C328  1  0.31129490  0.86666523  0.53370762  1
  C  C329  1  0.55541203  0.83684546  0.60336398  1
  C  C330  1  0.59726947  0.86960262  0.66459670  1
  C  C331  1  0.52074514  0.87048063  0.71721111  1
  C  C332  1  0.51250488  0.80875554  0.75892646  1
  C  C333  1  0.46034835  0.74557176  0.74221302  1
  C  C334  1  0.46238067  0.68932537  0.78156369  1
  C  C335  1  0.55839041  0.75416956  0.85400032  1
  C  C336  1  0.56173571  0.81212721  0.81662643  1
  C  C337  1  0.72517478  0.60310568  0.94334985  1
  C  C338  1  0.74917898  0.65941410  0.89776983  1
  C  C339  1  0.78512893  0.72802417  0.91351321  1
  C  C340  1  0.79750987  0.75899829  0.97689851  1
  C  C341  1  0.74473759  0.65411242  0.83180405  1
  C  C342  1  0.77891266  0.72093765  0.80834478  1
  C  C343  1  0.71313418  0.59032019  0.79562192  1
  C  C344  1  0.79274327  0.74589200  0.74679155  1
  C  C345  1  0.76865098  0.69912831  0.69252599  1
  C  C346  1  0.84191653  0.66986832  0.66117083  1
  C  C347  1  0.81923011  0.62867927  0.60849319  1
  C  C348  1  0.72355949  0.61666591  0.58647951  1
  C  C349  1  0.64998679  0.64444615  0.61854987  1
  C  C350  1  0.67236214  0.68523935  0.67148659  1
  C  C351  1  0.82879213  0.81473655  0.73555220  1
  C  C352  1  0.84735711  0.85169216  0.67797841  1
  C  C353  1  0.82948977  0.82500058  0.61306820  1
  C  C354  1  0.88382360  0.91919184  0.69504073  1
  C  C355  1  0.88589776  0.92260041  0.76219050  1
  C  C356  1  0.91825650  0.98243242  0.80289655  1
  C  C357  1  0.91778607  0.97729811  0.65340770  1
  C  C358  1  0.46258546  0.65452813  0.02076960  1
  C  C359  1  0.42705759  0.69118525  0.07480840  1
  C  C360  1  0.42339481  0.76318443  0.07571225  1
  C  C361  1  0.44917210  0.81353177  0.02449249  1
  C  C362  1  0.39070373  0.66413924  0.13264785  1
  C  C363  1  0.37689256  0.59060451  0.15061035  1
  C  C364  1  0.36758892  0.72103945  0.16867847  1
  C  C365  1  0.31380616  0.78706011  0.25627313  1
  C  C366  1  0.31241776  0.90050892  0.25756308  1
  C  C367  1  0.32353723  0.97192204  0.23401727  1
  C  C368  1  0.27772992  0.87481189  0.31707085  1
  C  C369  1  0.25095436  0.91683329  0.37048429  1
  C  C370  1  0.27666153  0.80335510  0.31650226  1
  C  C371  1  0.24150311  0.75538023  0.36827780  1
  C  C372  1  0.33194478  0.72464218  0.23021243  1
  C  C373  1  0.18740988  0.83865034  0.76851504  1
  C  C374  1  0.11795226  0.85709445  0.81077069  1
  C  C375  1  0.13922968  0.91566645  0.84764824  1
  C  C376  1  0.22943733  0.95592896  0.84244835  1
  C  C377  1  0.29848952  0.93808650  0.79983393  1
  C  C378  1  0.27711355  0.87959651  0.76306312  1
  C  C379  1  0.09922444  0.52779677  0.05072613  1
  C  C380  1  0.02102935  0.55750582  0.07407732  1
  C  C381  1  0.02736260  0.62903517  0.07780952  1
  C  C382  1  0.11412382  0.66688582  0.05725903  1
  C  C383  1  0.18870328  0.63333261  0.03370799  1
  C  C384  1  0.94458195  0.66314634  0.10336196  1
  C  C385  1  0.90272986  0.63039254  0.16459680  1
  C  C386  1  0.97925521  0.62951831  0.21721146  1
  C  C387  1  0.98748885  0.69124506  0.25892419  1
  C  C388  1  0.03963959  0.75442889  0.24220809  1
  C  C389  1  0.03761301  0.81067344  0.28156033  1
  C  C390  1  0.94160842  0.74583145  0.35399947  1
  C  C391  1  0.93826282  0.68787365  0.31662588  1
  C  C392  1  0.77481648  0.89689359  0.44335643  1
  C  C393  1  0.75080992  0.84058599  0.39777241  1
  C  C394  1  0.71486570  0.77197501  0.41351406  1
  C  C395  1  0.70248501  0.74099961  0.47690018  1
  C  C396  1  0.75525690  0.84588950  0.33180712  1
  C  C397  1  0.72108636  0.77906217  0.30834661  1
  C  C398  1  0.78686427  0.90968109  0.29562622  1
  C  C399  1  0.70725351  0.75411010  0.24679327  1
  C  C400  1  0.73134653  0.80087613  0.19253074  1
  C  C401  1  0.65808190  0.83013448  0.16117214  1
  C  C402  1  0.68076845  0.87132230  0.10849610  1
  C  C403  1  0.77643915  0.88333709  0.08648182  1
  C  C404  1  0.85001382  0.85555853  0.11855516  1
  C  C405  1  0.82763528  0.81476552  0.17149122  1
  C  C406  1  0.67120783  0.68526348  0.23555266  1
  C  C407  1  0.65264489  0.64830970  0.17797729  1
  C  C408  1  0.67051394  0.67500563  0.11306816  1
  C  C409  1  0.61618109  0.58080807  0.19503836  1
  C  C410  1  0.61410458  0.57739975  0.26218812  1
  C  C411  1  0.58174862  0.51756537  0.30289060  1
  C  C412  1  0.58221799  0.52270419  0.15340459  1
  C  C413  1  0.03740763  0.84547422  0.52076970  1
  C  C414  1  0.07293423  0.80881578  0.57480757  1
  C  C415  1  0.07660089  0.73681816  0.57571170  1
  C  C416  1  0.05082046  0.68647161  0.52449217  1
  C  C417  1  0.10929054  0.83586102  0.63264674  1
  C  C418  1  0.12310645  0.90939738  0.65060856  1
  C  C419  1  0.13240854  0.77896097  0.66867680  1
  C  C420  1  0.18619235  0.71294271  0.75627144  1
  C  C421  1  0.18757247  0.59949181  0.75756061  1
  C  C422  1  0.17645434  0.52807911  0.73401126  1
  C  C423  1  0.22225844  0.62518804  0.81706997  1
  C  C424  1  0.24904625  0.58316847  0.87048526  1
  C  C425  1  0.22333720  0.69664643  0.81649971  1
  C  C426  1  0.25849847  0.74462306  0.86827503  1
  C  C427  1  0.16805415  0.77536003  0.73021040  1
  N  N428  1  0.48919134  0.30670811  0.16351230  1
  N  N429  1  0.68203753  0.06480405  0.46935083  1
  N  N430  1  0.14767932  0.13962893  0.21435005  1
  N  N431  1  0.19841115  0.23560736  0.14008288  1
  N  N432  1  0.61250034  0.21977436  0.86822970  1
  N  N433  1  0.66729645  0.15226542  0.77844526  1
  N  N434  1  0.01080791  0.19329222  0.66351094  1
  N  N435  1  0.81796256  0.43519276  0.96934833  1
  N  N436  1  0.35232280  0.36036907  0.71434556  1
  N  N437  1  0.30158459  0.26439030  0.64008124  1
  N  N438  1  0.88751353  0.28022725  0.36822972  1
  N  N439  1  0.83270831  0.34773321  0.27844671  1
  N  N440  1  0.51081605  0.69329540  0.83649082  1
  N  N441  1  0.31796414  0.93519125  0.53064664  1
  N  N442  1  0.85232001  0.86036533  0.78565072  1
  N  N443  1  0.80158997  0.76438895  0.85991648  1
  N  N444  1  0.38750373  0.78022657  0.13177106  1
  N  N445  1  0.33270493  0.84773242  0.22155645  1
  N  N446  1  0.98918200  0.80670605  0.33648748  1
  N  N447  1  0.18203223  0.56480453  0.03064962  1
  N  N448  1  0.64767657  0.63963387  0.28565050  1
  N  N449  1  0.69840729  0.73561105  0.35991764  1
  N  N450  1  0.11249233  0.71977573  0.63177057  1
  N  N451  1  0.16728735  0.65226919  0.72155500  1
  O  O452  1  0.09149644  0.02778810  0.40634923  1
  O  O453  1  0.04005953  0.96811083  0.32049705  1
  O  O454  1  0.35307804  0.43918523  0.06458924  1
  O  O455  1  0.21695384  0.40446861  0.01158887  1
  O  O456  1  0.56426204  0.40977854  0.98698841  1
  O  O457  1  0.48038439  0.31140438  0.01818578  1
  O  O458  1  0.81728193  0.10924087  0.59235471  1
  O  O459  1  0.70330180  0.02379269  0.62071674  1
  O  O460  1  0.40850757  0.47222549  0.90634618  1
  O  O461  1  0.45994597  0.53189638  0.82049149  1
  O  O462  1  0.14692226  0.06080859  0.56459076  1
  O  O463  1  0.28304314  0.09552498  0.51158904  1
  O  O464  1  0.93574742  0.09023014  0.48699745  1
  O  O465  1  0.01963187  0.18860468  0.51818867  1
  O  O466  1  0.68271571  0.39076207  0.09235393  1
  O  O467  1  0.79669545  0.47620678  0.12071468  1
  O  O468  1  0.90850231  0.97221126  0.59365295  1
  O  O469  1  0.95994589  0.03188960  0.67950372  1
  O  O470  1  0.64691742  0.56080747  0.93540823  1
  O  O471  1  0.78304531  0.59552463  0.98840532  1
  O  O472  1  0.43573463  0.59022131  0.01300859  1
  O  O473  1  0.51961607  0.68859652  0.98181828  1
  O  O474  1  0.18270475  0.89075534  0.40764182  1
  O  O475  1  0.29669048  0.97620254  0.37928544  1
  O  O476  1  0.59150208  0.52779131  0.09364941  1
  O  O477  1  0.54005741  0.46811322  0.17949940  1
  O  O478  1  0.85307225  0.93919125  0.43541189  1
  O  O479  1  0.71694995  0.90447077  0.48841549  1
  O  O480  1  0.06426281  0.90978155  0.51301320  1
  O  O481  1  0.98038177  0.81141010  0.48181398  1
  O  O482  1  0.31729654  0.60924453  0.90764308  1
  O  O483  1  0.20331436  0.52379827  0.87928702  1
  F  F484  1  0.07587488  0.14214532  0.10984689  1
  F  F485  1  0.23504634  0.12069287  0.11776127  1
  F  F486  1  0.70650685  0.12567860  0.88619046  1
  F  F487  1  0.54688577  0.10029608  0.85291881  1
  F  F488  1  0.42411293  0.35785370  0.60983510  1
  F  F489  1  0.26494667  0.37930672  0.61775750  1
  F  F490  1  0.79350427  0.37432306  0.38618998  1
  F  F491  1  0.95312448  0.39970187  0.35292408  1
  F  F492  1  0.92412578  0.85785253  0.89015200  1
  F  F493  1  0.76495368  0.87930548  0.88224138  1
  F  F494  1  0.29349684  0.87432437  0.11381642  1
  F  F495  1  0.45311939  0.89970282  0.14708431  1
  F  F496  1  0.57587782  0.64214101  0.39015580  1
  F  F497  1  0.73504954  0.62069466  0.38223528  1
  F  F498  1  0.20650563  0.62568251  0.61381361  1
  F  F499  1  0.04688393  0.60029909  0.64707480  1
