# generated using pymatgen
data_Cd3Ag2H50C60(S4N)2
_symmetry_space_group_name_H-M   'P 1'
_cell_length_a   18.17662371
_cell_length_b   18.17625705
_cell_length_c   25.67903970
_cell_angle_alpha   110.72333238
_cell_angle_beta   110.72015305
_cell_angle_gamma   90.01004824
_symmetry_Int_Tables_number   1
_chemical_formula_structural   Cd3Ag2H50C60(S4N)2
_chemical_formula_sum   'Cd12 Ag8 H200 C240 S32 N8'
_cell_volume   7345.15728949
_cell_formula_units_Z   4
loop_
 _symmetry_equiv_pos_site_id
 _symmetry_equiv_pos_as_xyz
  1  'x, y, z'
loop_
 _atom_site_type_symbol
 _atom_site_label
 _atom_site_symmetry_multiplicity
 _atom_site_fract_x
 _atom_site_fract_y
 _atom_site_fract_z
 _atom_site_occupancy
  Cd  Cd0  1  0.39416084  0.70198953  0.13134506  1
  Cd  Cd1  1  0.73730820  0.92952575  0.13139684  1
  Cd  Cd2  1  0.42951367  0.89410327  0.63138330  1
  Cd  Cd3  1  0.20180759  0.23715875  0.63127168  1
  Cd  Cd4  1  0.60584500  0.29801646  0.86865891  1
  Cd  Cd5  1  0.26269078  0.07046398  0.86859782  1
  Cd  Cd6  1  0.57048627  0.10589916  0.36861471  1
  Cd  Cd7  1  0.79818711  0.76283746  0.36872705  1
  Cd  Cd8  1  0.55418405  0.80436696  0.10843952  1
  Cd  Cd9  1  0.30427976  0.05423295  0.60845764  1
  Cd  Cd10  1  0.44581982  0.19563816  0.89156067  1
  Cd  Cd11  1  0.69571458  0.94576881  0.39154251  1
  Ag  Ag12  1  0.78215208  0.84523384  0.24899633  1
  Ag  Ag13  1  0.46673116  0.90399480  0.24910723  1
  Ag  Ag14  1  0.40376701  0.28226119  0.74885833  1
  Ag  Ag15  1  0.34519623  0.96664058  0.74907707  1
  Ag  Ag16  1  0.21784769  0.15476042  0.75101406  1
  Ag  Ag17  1  0.53327192  0.09599439  0.75089574  1
  Ag  Ag18  1  0.59621863  0.71773246  0.25113425  1
  Ag  Ag19  1  0.65479565  0.03335298  0.25092896  1
  H  H20  1  0.22071000  0.66740339  0.01351602  1
  H  H21  1  0.79281816  0.84630746  0.01360087  1
  H  H22  1  0.34626835  0.72065950  0.51354042  1
  H  H23  1  0.16688073  0.29239563  0.51328711  1
  H  H24  1  0.77929577  0.33260184  0.98648669  1
  H  H25  1  0.20717849  0.15369531  0.98640041  1
  H  H26  1  0.65373983  0.27934748  0.48646052  1
  H  H27  1  0.83311576  0.70760094  0.48671580  1
  H  H28  1  0.08313665  0.60039082  0.97590593  1
  H  H29  1  0.89271237  0.87568189  0.97590884  1
  H  H30  1  0.37569678  0.58310040  0.47591920  1
  H  H31  1  0.09967114  0.39210359  0.47547106  1
  H  H32  1  0.91686900  0.39961473  0.02409485  1
  H  H33  1  0.10727864  0.12432883  0.02408915  1
  H  H34  1  0.62430512  0.41690480  0.52407960  1
  H  H35  1  0.90032932  0.60789096  0.52452988  1
  H  H36  1  0.16497048  0.50081494  0.11346926  1
  H  H37  1  0.94863304  0.11283738  0.11348093  1
  H  H38  1  0.61294267  0.66506255  0.61335221  1
  H  H39  1  0.00060573  0.44840024  0.61339628  1
  H  H40  1  0.83503011  0.49919060  0.88653060  1
  H  H41  1  0.05135287  0.88717149  0.88651969  1
  H  H42  1  0.38705524  0.33493436  0.38665035  1
  H  H43  1  0.99938998  0.55159824  0.38660286  1
  H  H44  1  0.30112749  0.57101509  0.14421005  1
  H  H45  1  0.84316411  0.07342305  0.14425989  1
  H  H46  1  0.57339147  0.80115828  0.64417385  1
  H  H47  1  0.07087629  0.34307142  0.64420832  1
  H  H48  1  0.69887781  0.42899124  0.85579576  1
  H  H49  1  0.15682851  0.92657906  0.85574509  1
  H  H50  1  0.42661111  0.19883493  0.35582803  1
  H  H51  1  0.92911484  0.65692588  0.35579039  1
  H  H52  1  0.02925469  0.46918218  0.05145572  1
  H  H53  1  0.02215195  0.08239075  0.05137138  1
  H  H54  1  0.58240536  0.52920643  0.55130174  1
  H  H55  1  0.96868733  0.52172951  0.55117775  1
  H  H56  1  0.97075070  0.53082681  0.94854421  1
  H  H57  1  0.97783412  0.91761684  0.94862463  1
  H  H58  1  0.41759424  0.47079114  0.44869893  1
  H  H59  1  0.03130930  0.47826678  0.44881933  1
  H  H60  1  0.36210637  0.83826562  0.07424880  1
  H  H61  1  0.71207482  0.73603567  0.07420814  1
  H  H62  1  0.23611363  0.86204844  0.57420233  1
  H  H63  1  0.33836176  0.21193466  0.57433143  1
  H  H64  1  0.63790060  0.16173861  0.92575630  1
  H  H65  1  0.28792360  0.26396759  0.92579013  1
  H  H66  1  0.76389123  0.13795619  0.42579945  1
  H  H67  1  0.66163824  0.78806661  0.42567084  1
  H  H68  1  0.24260616  0.87865560  0.01442916  1
  H  H69  1  0.77174996  0.63586831  0.01436968  1
  H  H70  1  0.13593769  0.74253742  0.51431118  1
  H  H71  1  0.37887142  0.27160784  0.51455175  1
  H  H72  1  0.75740337  0.12134998  0.98557553  1
  H  H73  1  0.22824703  0.36413461  0.98562895  1
  H  H74  1  0.86406643  0.25746521  0.48569225  1
  H  H75  1  0.62113121  0.72839369  0.48545078  1
  H  H76  1  0.16397147  0.79040975  0.90750525  1
  H  H77  1  0.74347373  0.61720943  0.90746078  1
  H  H78  1  0.11722953  0.66408269  0.40735148  1
  H  H79  1  0.29069291  0.24345773  0.40766522  1
  H  H80  1  0.83603856  0.20959365  0.09250115  1
  H  H81  1  0.25652432  0.38278812  0.09253833  1
  H  H82  1  0.88277382  0.33591993  0.59265117  1
  H  H83  1  0.70931229  0.75654045  0.59233691  1
  H  H84  1  0.20989254  0.66306642  0.86144445  1
  H  H85  1  0.65148624  0.69852519  0.86142814  1
  H  H86  1  0.19857219  0.71019960  0.36138705  1
  H  H87  1  0.16330153  0.15150528  0.36154086  1
  H  H88  1  0.79011046  0.33693698  0.13856323  1
  H  H89  1  0.34850974  0.30146798  0.13856710  1
  H  H90  1  0.80142761  0.28980217  0.63861441  1
  H  H91  1  0.83670511  0.84849229  0.63845853  1
  H  H92  1  0.33129824  0.62340578  0.92093743  1
  H  H93  1  0.58969716  0.79776842  0.92097955  1
  H  H94  1  0.29782379  0.83151619  0.42100432  1
  H  H95  1  0.12347028  0.08962039  0.42099796  1
  H  H96  1  0.66870458  0.37659434  0.07906768  1
  H  H97  1  0.41029812  0.20222927  0.07901378  1
  H  H98  1  0.70217608  0.16848732  0.57899304  1
  H  H99  1  0.87653207  0.91037809  0.57899951  1
  H  H100  1  0.79684896  0.70087737  0.16938478  1
  H  H101  1  0.37241432  0.96893803  0.16944550  1
  H  H102  1  0.46890628  0.29694956  0.66927219  1
  H  H103  1  0.20097044  0.87236154  0.66941758  1
  H  H104  1  0.20314819  0.29912236  0.83061222  1
  H  H105  1  0.62759002  0.03106595  0.83055934  1
  H  H106  1  0.53109215  0.70304800  0.33072730  1
  H  H107  1  0.79902828  0.12763813  0.33058458  1
  H  H108  1  0.82582467  0.57512821  0.10588608  1
  H  H109  1  0.27990228  0.03121833  0.10599442  1
  H  H110  1  0.53107629  0.32585292  0.60566138  1
  H  H111  1  0.07525666  0.77975121  0.60596102  1
  H  H112  1  0.17417176  0.42487042  0.89411080  1
  H  H113  1  0.72009993  0.96878607  0.89401126  1
  H  H114  1  0.46891954  0.67414245  0.39433669  1
  H  H115  1  0.92474213  0.22024829  0.39404003  1
  H  H116  1  0.71650631  0.46170416  0.03731879  1
  H  H117  1  0.32046224  0.07575681  0.03720541  1
  H  H118  1  0.57560297  0.21640283  0.53695937  1
  H  H119  1  0.96176910  0.82044734  0.53738328  1
  H  H120  1  0.28348835  0.53829498  0.96267988  1
  H  H121  1  0.67953952  0.92424397  0.96279923  1
  H  H122  1  0.42439196  0.78359564  0.46303899  1
  H  H123  1  0.03822984  0.17955181  0.46261553  1
  H  H124  1  0.57943546  0.47478600  0.03543650  1
  H  H125  1  0.45558304  0.06066716  0.03517614  1
  H  H126  1  0.56068084  0.07937722  0.53515792  1
  H  H127  1  0.97472729  0.95562987  0.53549152  1
  H  H128  1  0.42055984  0.52521441  0.96456341  1
  H  H129  1  0.54441665  0.93933394  0.96482462  1
  H  H130  1  0.43931801  0.92062311  0.46484079  1
  H  H131  1  0.02527301  0.04436979  0.46450805  1
  H  H132  1  0.55051820  0.59990993  0.09921932  1
  H  H133  1  0.54837079  0.99939995  0.09899557  1
  H  H134  1  0.49950146  0.05057302  0.59908115  1
  H  H135  1  0.09977379  0.04846153  0.59926645  1
  H  H136  1  0.44948012  0.40009259  0.90078185  1
  H  H137  1  0.45163472  0.00060216  0.90100568  1
  H  H138  1  0.50050151  0.94942866  0.40091873  1
  H  H139  1  0.90022617  0.95153705  0.40073339  1
  H  H140  1  0.97352222  0.84579030  0.14018157  1
  H  H141  1  0.16670320  0.79400913  0.14006906  1
  H  H142  1  0.29374396  0.47339937  0.64000074  1
  H  H143  1  0.34606461  0.66663579  0.64003592  1
  H  H144  1  0.02646618  0.15420791  0.85981678  1
  H  H145  1  0.83330288  0.20599443  0.85993454  1
  H  H146  1  0.70624955  0.52660068  0.35999498  1
  H  H147  1  0.65393862  0.33336246  0.35996481  1
  H  H148  1  0.09991899  0.93824123  0.18381417  1
  H  H149  1  0.08371213  0.74533224  0.18364076  1
  H  H150  1  0.24502691  0.59985291  0.68370298  1
  H  H151  1  0.43845310  0.58375286  0.68363866  1
  H  H152  1  0.90007339  0.06175217  0.81617922  1
  H  H153  1  0.91629014  0.25467205  0.81636020  1
  H  H154  1  0.75497382  0.40015043  0.31629404  1
  H  H155  1  0.56155109  0.41624775  0.31636305  1
  H  H156  1  0.12283080  0.06476927  0.27081307  1
  H  H157  1  0.14767513  0.70602481  0.27079141  1
  H  H158  1  0.20588092  0.62288640  0.77092333  1
  H  H159  1  0.56482332  0.64787852  0.77088428  1
  H  H160  1  0.87717027  0.93522483  0.72918130  1
  H  H161  1  0.85232371  0.29397646  0.72920969  1
  H  H162  1  0.79412386  0.37712032  0.22907658  1
  H  H163  1  0.43518105  0.35211789  0.22911702  1
  H  H164  1  0.01772474  0.09848072  0.31470644  1
  H  H165  1  0.29665071  0.71605378  0.31472803  1
  H  H166  1  0.21620278  0.51780353  0.81484343  1
  H  H167  1  0.59849981  0.79687321  0.81484444  1
  H  H168  1  0.98228134  0.90151726  0.68529120  1
  H  H169  1  0.70334979  0.28394539  0.68527235  1
  H  H170  1  0.78379359  0.48219811  0.18514981  1
  H  H171  1  0.40150839  0.20312807  0.18515772  1
  H  H172  1  0.89396876  0.00541562  0.27247938  1
  H  H173  1  0.37833931  0.76665844  0.27249143  1
  H  H174  1  0.26681530  0.39398342  0.77247688  1
  H  H175  1  0.50558604  0.87842644  0.77252882  1
  H  H176  1  0.10603409  0.99458910  0.72752516  1
  H  H177  1  0.62166413  0.23334116  0.72751071  1
  H  H178  1  0.73317179  0.60601802  0.22751417  1
  H  H179  1  0.49441778  0.12157507  0.22747072  1
  H  H180  1  0.97258346  0.81829489  0.26246451  1
  H  H181  1  0.28980390  0.94431950  0.26252092  1
  H  H182  1  0.44422120  0.47250352  0.76260404  1
  H  H183  1  0.31836157  0.78987564  0.76251761  1
  H  H184  1  0.02742011  0.18169690  0.73753657  1
  H  H185  1  0.71019680  0.05567638  0.73747727  1
  H  H186  1  0.55578908  0.52749749  0.23739424  1
  H  H187  1  0.68163678  0.21011468  0.23747642  1
  H  H188  1  0.10048764  0.90813453  0.31805895  1
  H  H189  1  0.21774518  0.90999374  0.31824146  1
  H  H190  1  0.41009310  0.60035898  0.81841104  1
  H  H191  1  0.40834058  0.71780657  0.81826075  1
  H  H192  1  0.89951306  0.09186414  0.68194223  1
  H  H193  1  0.78224806  0.09000883  0.68175518  1
  H  H194  1  0.58991756  0.39964489  0.18158703  1
  H  H195  1  0.59166144  0.28218897  0.18173638  1
  H  H196  1  0.16156812  0.95644671  0.43063063  1
  H  H197  1  0.26926783  0.97444068  0.43081079  1
  H  H198  1  0.47467659  0.66132312  0.93095497  1
  H  H199  1  0.45636171  0.76931788  0.93079903  1
  H  H200  1  0.83842889  0.04355800  0.56937221  1
  H  H201  1  0.73072605  0.02556316  0.56918710  1
  H  H202  1  0.52533069  0.33867663  0.06904389  1
  H  H203  1  0.54363773  0.23067447  0.06919789  1
  H  H204  1  0.09381209  0.91210773  0.48511044  1
  H  H205  1  0.39137739  0.07340251  0.48516330  1
  H  H206  1  0.57367144  0.59354466  0.98524072  1
  H  H207  1  0.41174570  0.89140015  0.98516361  1
  H  H208  1  0.90618215  0.08789335  0.51488901  1
  H  H209  1  0.60862117  0.92659664  0.51483512  1
  H  H210  1  0.42633249  0.40645190  0.01475715  1
  H  H211  1  0.58824890  0.10859068  0.01483442  1
  H  H212  1  0.96543656  0.82407883  0.43006685  1
  H  H213  1  0.46461672  0.10631596  0.43001291  1
  H  H214  1  0.60658857  0.46522503  0.92999680  1
  H  H215  1  0.32363532  0.96456642  0.92999093  1
  H  H216  1  0.03456094  0.17591722  0.56993349  1
  H  H217  1  0.53538779  0.89367918  0.56998792  1
  H  H218  1  0.39341329  0.53477086  0.07000257  1
  H  H219  1  0.67635823  0.03541945  0.07000425  1
  C  C220  1  0.20600699  0.62884674  0.03385263  1
  C  C221  1  0.82787584  0.90518042  0.03391797  1
  C  C222  1  0.40515571  0.70595211  0.53386402  1
  C  C223  1  0.12840926  0.32751777  0.53365021  1
  C  C224  1  0.79400005  0.37115454  0.96614836  1
  C  C225  1  0.17211620  0.09482502  0.96608105  1
  C  C226  1  0.59485018  0.29405007  0.46613402  1
  C  C227  1  0.87158441  0.67247810  0.46634926  1
  C  C228  1  0.12898171  0.59133267  0.01324633  1
  C  C229  1  0.88425754  0.92207345  0.01327976  1
  C  C230  1  0.42210034  0.62897130  0.51325969  1
  C  C231  1  0.09077014  0.38378277  0.51293966  1
  C  C232  1  0.87102161  0.40867287  0.98675211  1
  C  C233  1  0.11573720  0.07793485  0.98672138  1
  C  C234  1  0.57790368  0.37103163  0.48673766  1
  C  C235  1  0.90922626  0.61621218  0.48706017  1
  C  C236  1  0.11153489  0.54315827  0.04119561  1
  C  C237  1  0.92967613  0.99817752  0.04121492  1
  C  C238  1  0.49823712  0.61156271  0.54115805  1
  C  C239  1  0.04276992  0.42932431  0.54097517  1
  C  C240  1  0.88846216  0.45685105  0.95880667  1
  C  C241  1  0.07031133  0.00182857  0.95878428  1
  C  C242  1  0.50176330  0.38843663  0.45884344  1
  C  C243  1  0.95722749  0.57067007  0.45902568  1
  C  C244  1  0.17492371  0.53628327  0.08942441  1
  C  C245  1  0.91458164  0.05333397  0.08944675  1
  C  C246  1  0.55339323  0.67495580  0.58932951  1
  C  C247  1  0.03598807  0.41432169  0.58929503  1
  C  C248  1  0.82507913  0.46372431  0.91057952  1
  C  C249  1  0.08541277  0.94666854  0.91055466  1
  C  C250  1  0.44660737  0.32504027  0.41067395  1
  C  C251  1  0.96400695  0.58567470  0.41070521  1
  C  C252  1  0.25056776  0.57502596  0.10682192  1
  C  C253  1  0.85635464  0.03202179  0.10687765  1
  C  C254  1  0.53199635  0.75058990  0.60678135  1
  C  C255  1  0.07476273  0.35612076  0.60674496  1
  C  C256  1  0.74943758  0.42497844  0.89318273  1
  C  C257  1  0.14363827  0.96797871  0.89312463  1
  C  C258  1  0.46800793  0.24941238  0.39321985  1
  C  C259  1  0.92523195  0.64387454  0.39325554  1
  C  C260  1  0.03296508  0.50125967  0.02340338  1
  C  C261  1  0.99042115  0.02222087  0.02337593  1
  C  C262  1  0.52225216  0.53296806  0.52333355  1
  C  C263  1  0.00099377  0.49018690  0.52325266  1
  C  C264  1  0.96703660  0.49874887  0.97659401  1
  C  C265  1  0.00956889  0.97778843  0.97662347  1
  C  C266  1  0.47774973  0.46703337  0.47666764  1
  C  C267  1  0.99900854  0.50980884  0.47675013  1
  C  C268  1  0.35393941  0.72725734  0.00219098  1
  C  C269  1  0.64826489  0.77509469  0.00219459  1
  C  C270  1  0.27516411  0.85403040  0.50220910  1
  C  C271  1  0.22730709  0.14816367  0.50227059  1
  C  C272  1  0.64606746  0.27274337  0.99781402  1
  C  C273  1  0.35173720  0.22490538  0.99780141  1
  C  C274  1  0.72483567  0.14597237  0.49779115  1
  C  C275  1  0.77268998  0.85183623  0.49772754  1
  C  C276  1  0.32871414  0.79943463  0.02771467  1
  C  C277  1  0.69894420  0.72837704  0.02768446  1
  C  C278  1  0.22846596  0.82872726  0.52767979  1
  C  C279  1  0.29954671  0.19882436  0.52780533  1
  C  C280  1  0.67128815  0.20056211  0.97228691  1
  C  C281  1  0.30105797  0.27162563  0.97231342  1
  C  C282  1  0.77153871  0.17127687  0.47232240  1
  C  C283  1  0.70045101  0.80117396  0.47219464  1
  C  C284  1  0.26064746  0.82187928  0.99382092  1
  C  C285  1  0.73310127  0.67204378  0.99376406  1
  C  C286  1  0.17212086  0.76064330  0.49373636  1
  C  C287  1  0.32208358  0.23298973  0.49392839  1
  C  C288  1  0.73935763  0.17812570  0.00618349  1
  C  C289  1  0.26689595  0.32795671  0.00623421  1
  C  C290  1  0.82788270  0.23935412  0.50626710  1
  C  C291  1  0.67792133  0.76700727  0.50607344  1
  C  C292  1  0.21692723  0.77259810  0.93411004  1
  C  C293  1  0.71709671  0.66161716  0.93404385  1
  C  C294  1  0.16165512  0.71702686  0.43398999  1
  C  C295  1  0.27282551  0.21708196  0.43422672  1
  C  C296  1  0.78307979  0.22740505  0.06589572  1
  C  C297  1  0.28290012  0.33838333  0.06595403  1
  C  C298  1  0.83834850  0.28297324  0.56601174  1
  C  C299  1  0.72717959  0.78291738  0.56577531  1
  C  C300  1  0.24271322  0.70137444  0.90827160  1
  C  C301  1  0.66548242  0.70703685  0.90824694  1
  C  C302  1  0.20709036  0.74292235  0.40822117  1
  C  C303  1  0.20157916  0.16546967  0.40836617  1
  C  C304  1  0.75729098  0.29862895  0.09173309  1
  C  C305  1  0.33452092  0.29296298  0.09175272  1
  C  C306  1  0.79291059  0.25708228  0.59178086  1
  C  C307  1  0.79842447  0.83453134  0.59163378  1
  C  C308  1  0.31117355  0.67870761  0.94169243  1
  C  C309  1  0.63054302  0.76319374  0.94171145  1
  C  C310  1  0.26324308  0.81133642  0.44171397  1
  C  C311  1  0.17882096  0.13045422  0.44177180  1
  C  C312  1  0.68883177  0.32129587  0.05831399  1
  C  C313  1  0.36945765  0.23680599  0.05828491  1
  C  C314  1  0.73675847  0.18866771  0.55828926  1
  C  C315  1  0.82118173  0.86954720  0.55822601  1
  C  C316  1  0.67132303  0.65960405  0.13736006  1
  C  C317  1  0.46576871  0.97802205  0.13725602  1
  C  C318  1  0.47801055  0.17140629  0.63718953  1
  C  C319  1  0.15956679  0.96577404  0.63738372  1
  C  C320  1  0.32867418  0.34039929  0.86263760  1
  C  C321  1  0.53423261  0.02197610  0.86274220  1
  C  C322  1  0.52199062  0.82859499  0.36281391  1
  C  C323  1  0.84043362  0.03422067  0.36261418  1
  C  C324  1  0.74906135  0.65157522  0.13960821  1
  C  C325  1  0.39036901  0.98844950  0.13963208  1
  C  C326  1  0.48836891  0.24914273  0.63945635  1
  C  C327  1  0.15159168  0.89030717  0.63966418  1
  C  C328  1  0.25093514  0.34842703  0.86038933  1
  C  C329  1  0.60963678  0.01155288  0.86037124  1
  C  C330  1  0.51163572  0.75085494  0.36054580  1
  C  C331  1  0.84840652  0.10969098  0.36033507  1
  C  C332  1  0.76509562  0.58044173  0.10378168  1
  C  C333  1  0.33849789  0.02374027  0.10381861  1
  C  C334  1  0.52359496  0.26513270  0.60356099  1
  C  C335  1  0.08049947  0.83839434  0.60386952  1
  C  C336  1  0.23490161  0.41956061  0.89621719  1
  C  C337  1  0.66150457  0.97626539  0.89618792  1
  C  C338  1  0.47640748  0.73486647  0.39644134  1
  C  C339  1  0.91950007  0.16160431  0.39613049  1
  C  C340  1  0.70419607  0.51698397  0.06564746  1
  C  C341  1  0.36113623  0.04883479  0.06553161  1
  C  C342  1  0.54874322  0.20416428  0.56534377  1
  C  C343  1  0.01702672  0.86109669  0.56571944  1
  C  C344  1  0.29580016  0.48301795  0.93435161  1
  C  C345  1  0.63886356  0.95116792  0.93447224  1
  C  C346  1  0.45125561  0.79583705  0.43465373  1
  C  C347  1  0.98297078  0.13890406  0.43428090  1
  C  C348  1  0.62711924  0.52445023  0.06434925  1
  C  C349  1  0.43687941  0.04000844  0.06415361  1
  C  C350  1  0.54000135  0.12709394  0.56407512  1
  C  C351  1  0.02441773  0.93689616  0.56441582  1
  C  C352  1  0.37287522  0.47555126  0.93564923  1
  C  C353  1  0.56312139  0.95999375  0.93584767  1
  C  C354  1  0.45999732  0.87290495  0.43592162  1
  C  C355  1  0.97558208  0.06310468  0.43558327  1
  C  C356  1  0.61062630  0.59514820  0.10001618  1
  C  C357  1  0.48907762  0.00499987  0.09982296  1
  C  C358  1  0.50500441  0.11065076  0.59979683  1
  C  C359  1  0.09508247  0.98913163  0.60006373  1
  C  C360  1  0.38937152  0.40485364  0.89998389  1
  C  C361  1  0.51092473  0.99499955  0.90017689  1
  C  C362  1  0.49499734  0.88935009  0.40020421  1
  C  C363  1  0.90491864  0.01086795  0.39993607  1
  C  C364  1  0.92517924  0.91963600  0.20315534  1
  C  C365  1  0.27788118  0.78316895  0.20311507  1
  C  C366  1  0.28299484  0.42512553  0.70302626  1
  C  C367  1  0.41986280  0.77787672  0.70312090  1
  C  C368  1  0.07481682  0.08036535  0.79684774  1
  C  C369  1  0.72211998  0.21682954  0.79688539  1
  C  C370  1  0.71699765  0.57487510  0.29696844  1
  C  C371  1  0.58014203  0.22212706  0.29687905  1
  C  C372  1  0.98375057  0.90148621  0.17840099  1
  C  C373  1  0.19454995  0.77653216  0.17830331  1
  C  C374  1  0.27627850  0.48367693  0.67823533  1
  C  C375  1  0.40174638  0.69454434  0.67830221  1
  C  C376  1  0.01624128  0.09851026  0.82160084  1
  C  C377  1  0.80545126  0.22347088  0.82170018  1
  C  C378  1  0.72371716  0.51632361  0.32175778  1
  C  C379  1  0.59825429  0.30545632  0.32169654  1
  C  C380  1  0.05428123  0.95369654  0.20271252  1
  C  C381  1  0.14823604  0.74873967  0.20260205  1
  C  C382  1  0.24845988  0.55423424  0.70261829  1
  C  C383  1  0.45388937  0.64829313  0.70264420  1
  C  C384  1  0.94571151  0.04629881  0.79728243  1
  C  C385  1  0.85176606  0.25126312  0.79740054  1
  C  C386  1  0.75153615  0.44576916  0.29737460  1
  C  C387  1  0.54611435  0.35171050  0.29735763  1
  C  C388  1  0.06702245  0.02500358  0.25159792  1
  C  C389  1  0.18433990  0.72642539  0.25155619  1
  C  C390  1  0.22629658  0.56702566  0.75163459  1
  C  C391  1  0.52510899  0.68447921  0.75162977  1
  C  C392  1  0.93297552  0.97499043  0.74839693  1
  C  C393  1  0.81566109  0.27357915  0.74844528  1
  C  C394  1  0.77370256  0.43298431  0.24836202  1
  C  C395  1  0.47489477  0.31552148  0.24837210  1
  C  C396  1  0.00866095  0.04356000  0.27607490  1
  C  C397  1  0.26717890  0.73227048  0.27604557  1
  C  C398  1  0.23230374  0.50867474  0.77611754  1
  C  C399  1  0.54364987  0.76732748  0.77614120  1
  C  C400  1  0.99134075  0.95643630  0.72392310  1
  C  C401  1  0.73282188  0.26772801  0.72395449  1
  C  C402  1  0.76769067  0.49133161  0.22387789  1
  C  C403  1  0.45634951  0.23266968  0.22386043  1
  C  C404  1  0.93835972  0.99128179  0.25230363  1
  C  C405  1  0.31378584  0.76070545  0.25228916  1
  C  C406  1  0.26068667  0.43833165  0.75225446  1
  C  C407  1  0.49144304  0.81385976  0.75232867  1
  C  C408  1  0.06163922  0.00871737  0.74769518  1
  C  C409  1  0.68621665  0.23929734  0.74771382  1
  C  C410  1  0.73930011  0.56166770  0.24773808  1
  C  C411  1  0.50856420  0.18614102  0.24767312  1
  C  C412  1  0.95971346  0.81525701  0.34209656  1
  C  C413  1  0.38226911  0.02711227  0.34207648  1
  C  C414  1  0.52717489  0.45961769  0.84212323  1
  C  C415  1  0.31505088  0.88231251  0.84207446  1
  C  C416  1  0.04029059  0.18473831  0.65790500  1
  C  C417  1  0.61773266  0.97288009  0.65792279  1
  C  C418  1  0.47282778  0.54037905  0.15787874  1
  C  C419  1  0.68494377  0.11767260  0.15792062  1
  C  C420  1  0.99978386  0.83835622  0.31128445  1
  C  C421  1  0.31141615  0.97314027  0.31133442  1
  C  C422  1  0.47316151  0.49972561  0.81141986  1
  C  C423  1  0.33834193  0.81151157  0.81134605  1
  C  C424  1  0.00021766  0.16163766  0.68871695  1
  C  C425  1  0.68858284  0.02685316  0.68866146  1
  C  C426  1  0.52684426  0.50027029  0.18857926  1
  C  C427  1  0.66165403  0.18847606  0.18864736  1
  C  C428  1  0.07189086  0.88886807  0.34279813  1
  C  C429  1  0.27099109  0.95410011  0.34293714  1
  C  C430  1  0.45422710  0.57177626  0.84306356  1
  C  C431  1  0.38889628  0.77104725  0.84294176  1
  C  C432  1  0.92810802  0.11113033  0.65719942  1
  C  C433  1  0.72900960  0.04589862  0.65706044  1
  C  C434  1  0.54578798  0.42822921  0.15693357  1
  C  C435  1  0.61110981  0.22894789  0.15705648  1
  C  C436  1  0.10592249  0.91592805  0.40548397  1
  C  C437  1  0.29968369  0.98983700  0.40562370  1
  C  C438  1  0.49001040  0.60568437  0.90574760  1
  C  C439  1  0.41582520  0.79977633  0.90561925  1
  C  C440  1  0.89407528  0.08407488  0.59451545  1
  C  C441  1  0.70030806  0.01016632  0.59437264  1
  C  C442  1  0.50999784  0.39431874  0.09425101  1
  C  C443  1  0.58417295  0.20021535  0.09437995  1
  C  C444  1  0.06761391  0.89153246  0.43625203  1
  C  C445  1  0.36869757  0.04507325  0.43630871  1
  C  C446  1  0.54532071  0.56738925  0.93639369  1
  C  C447  1  0.39125126  0.86874656  0.93631157  1
  C  C448  1  0.93238612  0.10846502  0.56374847  1
  C  C449  1  0.63129808  0.95492168  0.56368618  1
  C  C450  1  0.45467906  0.43260697  0.06360596  1
  C  C451  1  0.60874651  0.13124418  0.06368486  1
  C  C452  1  0.99499498  0.84151143  0.40502386  1
  C  C453  1  0.41001923  0.06383045  0.40501872  1
  C  C454  1  0.56405031  0.49480622  0.90504794  1
  C  C455  1  0.34117957  0.91002119  0.90500351  1
  C  C456  1  0.00500462  0.15848614  0.59497681  1
  C  C457  1  0.58998461  0.93616351  0.59498143  1
  C  C458  1  0.43596003  0.50519464  0.09495338  1
  C  C459  1  0.65881926  0.08996889  0.09499339  1
  S  S460  1  0.43643012  0.69189275  0.04461475  1
  S  S461  1  0.60829884  0.85293634  0.04466660  1
  S  S462  1  0.35295770  0.93651996  0.54470296  1
  S  S463  1  0.19181444  0.10810346  0.54463836  1
  S  S464  1  0.56357683  0.30810779  0.95538913  1
  S  S465  1  0.39169969  0.14706196  0.95533000  1
  S  S466  1  0.64704452  0.06348727  0.45529795  1
  S  S467  1  0.80818585  0.89189436  0.45536061  1
  S  S468  1  0.64999444  0.75018985  0.18256748  1
  S  S469  1  0.53222758  0.93261308  0.18247661  1
  S  S470  1  0.43263141  0.15019603  0.68245126  1
  S  S471  1  0.25016296  0.03230153  0.68256885  1
  S  S472  1  0.35000806  0.24981670  0.81743312  1
  S  S473  1  0.46777287  0.06738433  0.81752372  1
  S  S474  1  0.56737545  0.84980005  0.31755014  1
  S  S475  1  0.74983899  0.96769505  0.31743538  1
  S  S476  1  0.83872028  0.84885959  0.17184950  1
  S  S477  1  0.33313444  0.82288739  0.17197192  1
  S  S478  1  0.32273361  0.33880055  0.67179955  1
  S  S479  1  0.34903620  0.83307911  0.67190682  1
  S  S480  1  0.16127399  0.15114136  0.82815714  1
  S  S481  1  0.66686755  0.17711566  0.82803235  1
  S  S482  1  0.67726393  0.66120388  0.32819784  1
  S  S483  1  0.65096500  0.16692214  0.32809246  1
  S  S484  1  0.86650980  0.75386838  0.29837311  1
  S  S485  1  0.43171037  0.04476369  0.29832454  1
  S  S486  1  0.54468617  0.36638743  0.79831373  1
  S  S487  1  0.25361130  0.93170769  0.79831139  1
  S  S488  1  0.13349185  0.24612615  0.70162485  1
  S  S489  1  0.56828751  0.95522959  0.70167321  1
  S  S490  1  0.45531199  0.63360796  0.20168669  1
  S  S491  1  0.74638151  0.06828180  0.20168781  1
  N  N492  1  0.26624602  0.62038467  0.07950403  1
  N  N493  1  0.81335294  0.95933787  0.07959453  1
  N  N494  1  0.45928454  0.76620805  0.57951025  1
  N  N495  1  0.12008190  0.31308743  0.57941249  1
  N  N496  1  0.73375810  0.37962265  0.92049940  1
  N  N497  1  0.18663920  0.04065977  0.92040758  1
  N  N498  1  0.54071734  0.23379438  0.42048972  1
  N  N499  1  0.87991227  0.68690912  0.42058808  1
