# generated using pymatgen
data_Nd2H48C39S3N14O19
_symmetry_space_group_name_H-M   P2/c
_cell_length_a   17.42592532
_cell_length_b   11.64055851
_cell_length_c   27.90473061
_cell_angle_alpha   90.00000000
_cell_angle_beta   116.00518848
_cell_angle_gamma   90.00000000
_symmetry_Int_Tables_number   13
_chemical_formula_structural   Nd2H48C39S3N14O19
_chemical_formula_sum   'Nd8 H192 C156 S12 N56 O76'
_cell_volume   5087.31353050
_cell_formula_units_Z   4
loop_
 _symmetry_equiv_pos_site_id
 _symmetry_equiv_pos_as_xyz
  1  'x, y, z'
  2  '-x, -y, -z'
  3  '-x, y, -z+1/2'
  4  'x, -y, z+1/2'
loop_
 _atom_site_type_symbol
 _atom_site_label
 _atom_site_symmetry_multiplicity
 _atom_site_fract_x
 _atom_site_fract_y
 _atom_site_fract_z
 _atom_site_occupancy
  Nd  Nd0  4  0.04254297  0.49297774  0.58104670  1
  Nd  Nd1  4  0.43030770  0.03346931  0.41950140  1
  H  H2  4  0.01104238  0.19790052  0.53746659  1
  H  H3  4  0.01361469  0.33896863  0.33251269  1
  H  H4  4  0.02168648  0.11413600  0.05988280  1
  H  H5  4  0.03279025  0.23860658  0.86448708  1
  H  H6  4  0.03321584  0.02294527  0.29259883  1
  H  H7  4  0.03724923  0.16247091  0.38645993  1
  H  H8  4  0.05218380  0.13265810  0.17518103  1
  H  H9  4  0.06659466  0.08012304  0.64849222  1
  H  H10  4  0.08485796  0.16134113  0.79279343  1
  H  H11  4  0.08933820  0.22766063  0.05876660  1
  H  H12  4  0.10179389  0.00727140  0.36234450  1
  H  H13  4  0.11006714  0.33034750  0.75479412  1
  H  H14  4  0.11242405  0.48394215  0.30983604  1
  H  H15  4  0.12590504  0.02823250  0.57266617  1
  H  H16  4  0.15518163  0.05107988  0.23471992  1
  H  H17  4  0.16414640  0.32994370  0.25230448  1
  H  H18  4  0.16687339  0.19411297  0.85727934  1
  H  H19  4  0.18843118  0.01725341  0.50641834  1
  H  H20  4  0.18906840  0.11883836  0.32426919  1
  H  H21  4  0.20012615  0.08897904  0.09374102  1
  H  H22  4  0.20838567  0.34024068  0.81353524  1
  H  H23  4  0.22007957  0.33295531  0.59538717  1
  H  H24  4  0.23387395  0.46444337  0.44221754  1
  H  H25  4  0.24747724  0.39113382  0.14002045  1
  H  H26  4  0.24987231  0.35991943  0.36781349  1
  H  H27  4  0.29950022  0.44512276  0.92468902  1
  H  H28  4  0.30957025  0.12537253  0.18898443  1
  H  H29  4  0.31471748  0.38722218  0.30166123  1
  H  H30  4  0.32303138  0.24662919  0.27996324  1
  H  H31  4  0.32525354  0.06042180  0.65771951  1
  H  H32  4  0.33165865  0.36982542  0.10035782  1
  H  H33  4  0.33420630  0.47850450  0.23069930  1
  H  H34  4  0.35300174  0.40073569  0.52146935  1
  H  H35  4  0.35670788  0.43651635  0.84270950  1
  H  H36  4  0.36011815  0.21403314  0.61557684  1
  H  H37  4  0.38788627  0.34885865  0.23078101  1
  H  H38  4  0.40108712  0.08328045  0.72547027  1
  H  H39  4  0.40940880  0.48081548  0.01186696  1
  H  H40  4  0.40996309  0.11553555  0.24617016  1
  H  H41  4  0.42917684  0.24495865  0.17590686  1
  H  H42  4  0.43109268  0.41841521  0.91093364  1
  H  H43  4  0.43260209  0.27243569  0.83229358  1
  H  H44  4  0.44085832  0.25240742  0.07772354  1
  H  H45  4  0.44965860  0.38006452  0.37472335  1
  H  H46  4  0.45636075  0.38621621  0.69220790  1
  H  H47  4  0.46533487  0.08762328  0.65300093  1
  H  H48  4  0.46768506  0.30925391  0.50242278  1
  H  H49  4  0.47121833  0.31154739  0.61134814  1
  C  C50  4  0.01560795  0.15518274  0.34317279  1
  C  C51  4  0.05098252  0.39641506  0.83676644  1
  C  C52  4  0.06674108  0.14058410  0.04419175  1
  C  C53  4  0.07117548  0.06949017  0.33012777  1
  C  C54  4  0.08189416  0.08472467  0.96826562  1
  C  C55  4  0.09393357  0.34507194  0.48226016  1
  C  C56  4  0.10639494  0.25602680  0.31856454  1
  C  C57  4  0.11233045  0.22992299  0.82246521  1
  C  C58  4  0.12813066  0.10133175  0.68151703  1
  C  C59  4  0.13510023  0.30077480  0.64564462  1
  C  C60  4  0.13873398  0.33442219  0.79863415  1
  C  C61  4  0.14212722  0.05502888  0.06077160  1
  C  C62  4  0.15741964  0.39134474  0.01635991  1
  C  C63  4  0.16892879  0.20489207  0.68346643  1
  C  C64  4  0.17451443  0.03295974  0.72681416  1
  C  C65  4  0.17691450  0.28755227  0.51164552  1
  C  C66  4  0.18278327  0.34658457  0.18248894  1
  C  C67  4  0.23241512  0.28705212  0.56551396  1
  C  C68  4  0.23591705  0.33634137  0.01904636  1
  C  C69  4  0.24983770  0.08459397  0.76214030  1
  C  C70  4  0.29465190  0.46876792  0.43937039  1
  C  C71  4  0.29719870  0.33323153  0.26626906  1
  C  C72  4  0.30763991  0.22467536  0.57614720  1
  C  C73  4  0.30891728  0.17936756  0.53049705  1
  C  C74  4  0.31292504  0.04132560  0.81410872  1
  C  C75  4  0.31613379  0.33073953  0.06187533  1
  C  C76  4  0.32718858  0.38431141  0.22640793  1
  C  C77  4  0.33880812  0.22843666  0.99781890  1
  C  C78  4  0.37275647  0.44170548  0.49310899  1
  C  C79  4  0.37312694  0.32013078  0.42642623  1
  C  C80  4  0.37503472  0.26951132  0.04977189  1
  C  C81  4  0.37636361  0.09880683  0.20302381  1
  C  C82  4  0.37682248  0.11476846  0.52351788  1
  C  C83  4  0.37885774  0.15645377  0.97184498  1
  C  C84  4  0.38489866  0.02862683  0.69033781  1
  C  C85  4  0.42528344  0.43473216  0.87075347  1
  C  C86  4  0.46392332  0.08558566  0.15999879  1
  C  C87  4  0.47324792  0.34504997  0.85357216  1
  C  C88  4  0.49394106  0.47100360  0.16525461  1
  S  S89  4  0.21777025  0.21425867  0.47435270  1
  S  S90  4  0.23285991  0.26606964  0.96408032  1
  S  S91  4  0.26405469  0.21697586  0.73981969  1
  N  N92  4  0.02789280  0.13468097  0.98603339  1
  N  N93  4  0.03065944  0.26292679  0.32162415  1
  N  N94  4  0.04844197  0.27885541  0.83743308  1
  N  N95  4  0.10488933  0.43059290  0.81658251  1
  N  N96  4  0.13269039  0.14564548  0.32393997  1
  N  N97  4  0.15251570  0.04524859  0.01186218  1
  N  N98  4  0.20486616  0.33058192  0.23471744  1
  N  N99  4  0.25559089  0.35467091  0.17520300  1
  N  N100  4  0.29980518  0.38033243  0.40397271  1
  N  N101  4  0.41702889  0.15829013  0.17421617  1
  N  N102  4  0.42227277  0.36257961  0.47659367  1
  N  N103  4  0.45439142  0.02419584  0.67431309  1
  N  N104  4  0.46831073  0.45937775  0.36840895  1
  N  N105  4  0.49980717  0.41481884  0.81975525  1
  O  O106  4  0.00821963  0.46436375  0.85094567  1
  O  O107  4  0.05210728  0.38650027  0.50648377  1
  O  O108  4  0.06352917  0.28567145  0.60488268  1
  O  O109  4  0.06611806  0.35308461  0.43211412  1
  O  O110  4  0.06966725  0.07663759  0.92089294  1
  O  O111  4  0.09593701  0.40151593  0.97010951  1
  O  O112  4  0.10751462  0.35151190  0.14588546  1
  O  O113  4  0.14639619  0.34058978  0.31146856  1
  O  O114  4  0.15725120  0.42312687  0.06021499  1
  O  O115  4  0.17547997  0.39616028  0.65440983  1
  O  O116  4  0.29437188  0.04720088  0.33442444  1
  O  O117  4  0.33711409  0.12981485  0.92311459  1
  O  O118  4  0.36148746  0.09311158  0.47552147  1
  O  O119  4  0.38389193  0.09398294  0.83766605  1
  O  O120  4  0.39606548  0.24236398  0.40402797  1
  O  O121  4  0.44419227  0.08856168  0.56520562  1
  O  O122  4  0.45624386  0.12018841  0.99945426  1
  O  O123  4  0.45989857  0.39411474  0.18014171  1
  O  O124  4  0.48989010  0.11533415  0.36213266  1
