# generated using pymatgen
data_ZnH10C17N3O4
_symmetry_space_group_name_H-M   'P 1'
_cell_length_a   11.80103455
_cell_length_b   14.97224227
_cell_length_c   14.97222935
_cell_angle_alpha   96.36288017
_cell_angle_beta   107.27853096
_cell_angle_gamma   107.27842703
_symmetry_Int_Tables_number   1
_chemical_formula_structural   ZnH10C17N3O4
_chemical_formula_sum   'Zn4 H40 C68 N12 O16'
_cell_volume   2353.86246086
_cell_formula_units_Z   4
loop_
 _symmetry_equiv_pos_site_id
 _symmetry_equiv_pos_as_xyz
  1  'x, y, z'
loop_
 _atom_site_type_symbol
 _atom_site_label
 _atom_site_symmetry_multiplicity
 _atom_site_fract_x
 _atom_site_fract_y
 _atom_site_fract_z
 _atom_site_occupancy
  Zn  Zn0  1  0.88307879  0.56201342  0.80499063  1
  Zn  Zn1  1  0.11692212  0.19500887  0.43798605  1
  Zn  Zn2  1  0.11692263  0.43798569  0.19501177  1
  Zn  Zn3  1  0.88307741  0.80498808  0.56201433  1
  H  H4  1  0.06857522  0.50584928  0.72798085  1
  H  H5  1  0.93142582  0.27201832  0.49414862  1
  H  H6  1  0.93142464  0.49414839  0.27201903  1
  H  H7  1  0.06857591  0.72798150  0.50585126  1
  H  H8  1  0.29630829  0.52423180  0.78575133  1
  H  H9  1  0.70369310  0.21424916  0.47576835  1
  H  H10  1  0.70369167  0.47576803  0.21424814  1
  H  H11  1  0.29630783  0.78575281  0.52423159  1
  H  H12  1  0.32607150  0.66706559  0.06318289  1
  H  H13  1  0.67393007  0.93681646  0.33293578  1
  H  H14  1  0.67392999  0.33293566  0.93681643  1
  H  H15  1  0.32607022  0.06318408  0.66706585  1
  H  H16  1  0.09279537  0.64068287  0.99282032  1
  H  H17  1  0.90720481  0.00718052  0.35931693  1
  H  H18  1  0.90720403  0.35931767  0.00718044  1
  H  H19  1  0.09279548  0.99282002  0.64068336  1
  H  H20  1  0.49170946  0.56499634  0.83619579  1
  H  H21  1  0.50829214  0.16380465  0.43500322  1
  H  H22  1  0.50829083  0.43500420  0.16380384  1
  H  H23  1  0.49170847  0.83619660  0.56499589  1
  H  H24  1  0.82123328  0.65654909  0.08866229  1
  H  H25  1  0.17876678  0.91133746  0.34344952  1
  H  H26  1  0.17876480  0.34344858  0.91133785  1
  H  H27  1  0.82123317  0.08866237  0.65654995  1
  H  H28  1  0.96571900  0.85873230  0.38946485  1
  H  H29  1  0.03428127  0.61053545  0.14126664  1
  H  H30  1  0.03428151  0.14126681  0.61053534  1
  H  H31  1  0.96572023  0.38946581  0.85873268  1
  H  H32  1  0.88030093  0.80132606  0.21130753  1
  H  H33  1  0.11969954  0.78869278  0.19867206  1
  H  H34  1  0.11969782  0.19867305  0.78869291  1
  H  H35  1  0.88030252  0.21130776  0.80132731  1
  H  H36  1  0.53937604  0.61552330  0.23860702  1
  H  H37  1  0.46062222  0.76139228  0.38447790  1
  H  H38  1  0.46062247  0.38447724  0.76139353  1
  H  H39  1  0.53937653  0.23860683  0.61552388  1
  H  H40  1  0.64277625  0.67788659  0.41778672  1
  H  H41  1  0.35722319  0.58221261  0.32211332  1
  H  H42  1  0.35722459  0.32211323  0.58221430  1
  H  H43  1  0.64277732  0.41778649  0.67788554  1
  C  C44  1  0.12914519  0.54075837  0.80202912  1
  C  C45  1  0.87085580  0.19797039  0.45923960  1
  C  C46  1  0.87085476  0.45924145  0.19797035  1
  C  C47  1  0.12914481  0.80203087  0.54075885  1
  C  C48  1  0.25671374  0.55220060  0.83485223  1
  C  C49  1  0.74328659  0.16514714  0.44780025  1
  C  C50  1  0.74328743  0.44779994  0.16514761  1
  C  C51  1  0.25671402  0.83485411  0.55220020  1
  C  C52  1  0.33103129  0.59848133  0.93048270  1
  C  C53  1  0.66897005  0.06951691  0.40152044  1
  C  C54  1  0.66897087  0.40152136  0.06951893  1
  C  C55  1  0.33102846  0.93048363  0.59847944  1
  C  C56  1  0.27131159  0.63117545  0.98862187  1
  C  C57  1  0.72868753  0.01137742  0.36882558  1
  C  C58  1  0.72868724  0.36882580  0.01137750  1
  C  C59  1  0.27131187  0.98862312  0.63117517  1
  C  C60  1  0.14317664  0.61659795  0.95038438  1
  C  C61  1  0.85682392  0.04961483  0.38340105  1
  C  C62  1  0.85682331  0.38340187  0.04961509  1
  C  C63  1  0.14317604  0.95038499  0.61659909  1
  C  C64  1  0.46758458  0.61289732  0.97076558  1
  C  C65  1  0.53241592  0.02923372  0.38710400  1
  C  C66  1  0.53241570  0.38710322  0.02923472  1
  C  C67  1  0.46758316  0.97076610  0.61289660  1
  C  C68  1  0.53507201  0.59202605  0.91340275  1
  C  C69  1  0.46492896  0.08659752  0.40797322  1
  C  C70  1  0.46492738  0.40797448  0.08659734  1
  C  C71  1  0.53507165  0.91340374  0.59202590  1
  C  C72  1  0.66336153  0.60651955  0.95610829  1
  C  C73  1  0.33663957  0.04389131  0.39347947  1
  C  C74  1  0.33663810  0.39347956  0.04389102  1
  C  C75  1  0.66336071  0.95610923  0.60652015  1
  C  C76  1  0.72123745  0.64493319  0.05424304  1
  C  C77  1  0.27876422  0.94575600  0.35506825  1
  C  C78  1  0.27876325  0.35507022  0.94575633  1
  C  C79  1  0.72123606  0.05424453  0.64493071  1
  C  C80  1  0.64730235  0.66449738  0.10636071  1
  C  C81  1  0.35269839  0.89363973  0.33550226  1
  C  C82  1  0.35269728  0.33550172  0.89363994  1
  C  C83  1  0.64730190  0.10636081  0.66449870  1
  C  C84  1  0.87256195  0.80351732  0.35338958  1
  C  C85  1  0.12743722  0.64661036  0.19648231  1
  C  C86  1  0.12743801  0.19648250  0.64661123  1
  C  C87  1  0.87256186  0.35338946  0.80351829  1
  C  C88  1  0.82473890  0.77123016  0.25437300  1
  C  C89  1  0.17526119  0.74562671  0.22876924  1
  C  C90  1  0.17526106  0.22876967  0.74562714  1
  C  C91  1  0.82473844  0.25437239  0.77123141  1
  C  C92  1  0.70311055  0.70227695  0.21111685  1
  C  C93  1  0.29688843  0.78888245  0.29772235  1
  C  C94  1  0.29688941  0.29772287  0.78888395  1
  C  C95  1  0.70311032  0.21111665  0.70227876  1
  C  C96  1  0.63458788  0.66872786  0.27000025  1
  C  C97  1  0.36541090  0.72999915  0.33127335  1
  C  C98  1  0.36541063  0.33127267  0.73000164  1
  C  C99  1  0.63458841  0.26999924  0.66872848  1
  C  C100  1  0.69065814  0.70305696  0.36853328  1
  C  C101  1  0.30934122  0.63146614  0.29694352  1
  C  C102  1  0.30934182  0.29694287  0.63146753  1
  C  C103  1  0.69065752  0.36853296  0.70305692  1
  C  C104  1  0.73687822  0.58085626  0.89687062  1
  C  C105  1  0.26312322  0.10312939  0.41914332  1
  C  C106  1  0.26311906  0.41914356  0.10312622  1
  C  C107  1  0.73687925  0.89687401  0.58085580  1
  C  C108  1  0.91150944  0.72658316  0.72658729  1
  C  C109  1  0.08848945  0.27341236  0.27341613  1
  C  C110  1  0.86848320  0.64009456  0.64009804  1
  C  C111  1  0.13151882  0.35989810  0.35990645  1
  N  N112  1  0.07277111  0.57186980  0.85875821  1
  N  N113  1  0.92722930  0.14124099  0.42812896  1
  N  N114  1  0.92722884  0.42813002  0.14124126  1
  N  N115  1  0.07277066  0.85875883  0.57187118  1
  N  N116  1  0.52306232  0.64731824  0.06602495  1
  N  N117  1  0.47693886  0.93397531  0.35268197  1
  N  N118  1  0.47693797  0.35268230  0.93397601  1
  N  N119  1  0.52306143  0.06602523  0.64731832  1
  N  N120  1  0.80744119  0.76948205  0.40963978  1
  N  N121  1  0.19255918  0.59036037  0.23051863  1
  N  N122  1  0.19256055  0.23051777  0.59036210  1
  N  N123  1  0.80744045  0.40963874  0.76948203  1
  O  O124  1  0.68235633  0.55407631  0.80684868  1
  O  O125  1  0.31764400  0.19315071  0.44592320  1
  O  O126  1  0.31764227  0.44592637  0.19315013  1
  O  O127  1  0.68235660  0.80685055  0.55407458  1
  O  O128  1  0.85136881  0.58788477  0.94051892  1
  O  O129  1  0.14863174  0.05948015  0.41211583  1
  O  O130  1  0.14863114  0.41211505  0.05947921  1
  O  O131  1  0.85136765  0.94052039  0.58788426  1
  O  O132  1  0.92845747  0.70809650  0.80901173  1
  O  O133  1  0.07154266  0.19098771  0.29190123  1
  O  O134  1  0.07154268  0.29190762  0.19098760  1
  O  O135  1  0.92845606  0.80901139  0.70809253  1
  O  O136  1  0.85356957  0.55757686  0.65856827  1
  O  O137  1  0.14643399  0.34143073  0.44242176  1
  O  O138  1  0.14643526  0.44242583  0.34143532  1
  O  O139  1  0.85356577  0.65856480  0.55757451  1
