# generated using pymatgen
data_ZnH24C28N4O5
_symmetry_space_group_name_H-M   'P 1'
_cell_length_a   14.66616467
_cell_length_b   19.35612289
_cell_length_c   19.63448339
_cell_angle_alpha   89.99998524
_cell_angle_beta   89.99995013
_cell_angle_gamma   89.99997330
_symmetry_Int_Tables_number   1
_chemical_formula_structural   ZnH24C28N4O5
_chemical_formula_sum   'Zn8 H192 C224 N32 O40'
_cell_volume   5573.83882604
_cell_formula_units_Z   8
loop_
 _symmetry_equiv_pos_site_id
 _symmetry_equiv_pos_as_xyz
  1  'x, y, z'
loop_
 _atom_site_type_symbol
 _atom_site_label
 _atom_site_symmetry_multiplicity
 _atom_site_fract_x
 _atom_site_fract_y
 _atom_site_fract_z
 _atom_site_occupancy
  Zn  Zn0  1  0.65287919  0.99732665  0.21038615  1
  Zn  Zn1  1  0.84711963  0.50267435  0.21038462  1
  Zn  Zn2  1  0.34711974  0.49732625  0.28961427  1
  Zn  Zn3  1  0.15288029  0.00267402  0.28961439  1
  Zn  Zn4  1  0.34712097  0.00267341  0.78961475  1
  Zn  Zn5  1  0.15287917  0.49732519  0.78961475  1
  Zn  Zn6  1  0.65287973  0.50267329  0.71038562  1
  Zn  Zn7  1  0.84712055  0.99732707  0.71038549  1
  H  H8  1  0.48798902  0.02214067  0.29975919  1
  H  H9  1  0.01201032  0.47785909  0.29975929  1
  H  H10  1  0.51201088  0.52214061  0.20024084  1
  H  H11  1  0.98798999  0.97785937  0.20024063  1
  H  H12  1  0.51201045  0.97785939  0.70024070  1
  H  H13  1  0.98798984  0.52214097  0.70024060  1
  H  H14  1  0.48799064  0.47785945  0.79975955  1
  H  H15  1  0.01201085  0.02214017  0.79975926  1
  H  H16  1  0.36202354  0.10362860  0.30770697  1
  H  H17  1  0.13797647  0.39637167  0.30770701  1
  H  H18  1  0.63797767  0.60362798  0.19229304  1
  H  H19  1  0.86202321  0.89637148  0.19229293  1
  H  H20  1  0.63797661  0.89637146  0.69229291  1
  H  H21  1  0.86202301  0.60362839  0.69229288  1
  H  H22  1  0.36202316  0.39637156  0.80770736  1
  H  H23  1  0.13797695  0.10362806  0.80770696  1
  H  H24  1  0.46199727  0.19602160  0.11913461  1
  H  H25  1  0.03800296  0.30397873  0.11913474  1
  H  H26  1  0.53800321  0.69602147  0.38086486  1
  H  H27  1  0.96199678  0.80397897  0.38086522  1
  H  H28  1  0.53800288  0.80397898  0.88086527  1
  H  H29  1  0.96199720  0.69602133  0.88086515  1
  H  H30  1  0.46199627  0.30397910  0.61913502  1
  H  H31  1  0.03800338  0.19602109  0.61913466  1
  H  H32  1  0.58726386  0.11097562  0.12316626  1
  H  H33  1  0.91273673  0.38902453  0.12316612  1
  H  H34  1  0.41273667  0.61097554  0.37683323  1
  H  H35  1  0.08726363  0.88902508  0.37683330  1
  H  H36  1  0.41273698  0.88902496  0.87683362  1
  H  H37  1  0.08726342  0.61097553  0.87683325  1
  H  H38  1  0.58726348  0.38902452  0.62316665  1
  H  H39  1  0.91273653  0.11097549  0.62316658  1
  H  H40  1  0.31861759  0.21349620  0.10912166  1
  H  H41  1  0.18138265  0.28650413  0.10912221  1
  H  H42  1  0.68138356  0.71349654  0.39087781  1
  H  H43  1  0.81861778  0.78650390  0.39087776  1
  H  H44  1  0.68138188  0.78650335  0.89087771  1
  H  H45  1  0.81861683  0.71349645  0.89087768  1
  H  H46  1  0.31861796  0.28650352  0.60912258  1
  H  H47  1  0.18138306  0.21349667  0.60912213  1
  H  H48  1  0.33821503  0.29354166  0.15141407  1
  H  H49  1  0.16178516  0.20645814  0.15141465  1
  H  H50  1  0.66178539  0.79354202  0.34858538  1
  H  H51  1  0.83821531  0.70645843  0.34858533  1
  H  H52  1  0.66178512  0.70645788  0.84858581  1
  H  H53  1  0.83821500  0.79354192  0.84858574  1
  H  H54  1  0.33821545  0.20645804  0.65141502  1
  H  H55  1  0.16178552  0.29354214  0.65141506  1
  H  H56  1  0.31756062  0.21163319  0.32090518  1
  H  H57  1  0.18243938  0.28836656  0.32090522  1
  H  H58  1  0.68243985  0.71163307  0.17909480  1
  H  H59  1  0.81756105  0.78836691  0.17909424  1
  H  H60  1  0.68243886  0.78836687  0.67909470  1
  H  H61  1  0.81756078  0.71163298  0.67909467  1
  H  H62  1  0.31756167  0.28836647  0.82090559  1
  H  H63  1  0.18243911  0.21163367  0.82090565  1
  H  H64  1  0.22145304  0.17330736  0.28155404  1
  H  H65  1  0.27854700  0.32669292  0.28155400  1
  H  H66  1  0.77854745  0.67330719  0.21844544  1
  H  H67  1  0.72145272  0.82669278  0.21844544  1
  H  H68  1  0.77854643  0.82669270  0.71844584  1
  H  H69  1  0.72145248  0.67330766  0.71844588  1
  H  H70  1  0.22145339  0.32669287  0.78155495  1
  H  H71  1  0.27854743  0.17330728  0.78155445  1
  H  H72  1  0.80632174  0.08178893  0.25166461  1
  H  H73  1  0.69367801  0.41821015  0.25166461  1
  H  H74  1  0.19367744  0.58178897  0.24833540  1
  H  H75  1  0.30632165  0.91821117  0.24833583  1
  H  H76  1  0.19367773  0.91821113  0.74833527  1
  H  H77  1  0.30632146  0.58178940  0.74833528  1
  H  H78  1  0.80632271  0.41821058  0.75166499  1
  H  H79  1  0.69367783  0.08178992  0.75166456  1
  H  H80  1  0.91331626  0.09243411  0.34534568  1
  H  H81  1  0.58668339  0.40756546  0.34534625  1
  H  H82  1  0.08668429  0.59243421  0.15465383  1
  H  H83  1  0.41331560  0.90756596  0.15465368  1
  H  H84  1  0.08668390  0.90756595  0.65465370  1
  H  H85  1  0.41331540  0.59243408  0.65465363  1
  H  H86  1  0.91331655  0.40756637  0.84534606  1
  H  H87  1  0.58668388  0.09243410  0.84534621  1
  H  H88  1  0.78051981  0.91523836  0.43850264  1
  H  H89  1  0.71948078  0.58476207  0.43850219  1
  H  H90  1  0.21948121  0.41523807  0.06149729  1
  H  H91  1  0.28051908  0.08476175  0.06149782  1
  H  H92  1  0.21948170  0.08476221  0.56149725  1
  H  H93  1  0.28051937  0.41523748  0.56149770  1
  H  H94  1  0.78051894  0.58476251  0.93850259  1
  H  H95  1  0.71948039  0.91523779  0.93850257  1
  H  H96  1  0.67500149  0.91596685  0.34124521  1
  H  H97  1  0.82499854  0.58403361  0.34124418  1
  H  H98  1  0.32499818  0.41596649  0.15875472  1
  H  H99  1  0.17500133  0.08403382  0.15875532  1
  H  H100  1  0.32499799  0.08403373  0.65875518  1
  H  H101  1  0.17500161  0.41596593  0.65875519  1
  H  H102  1  0.67500130  0.58403357  0.84124466  1
  H  H103  1  0.82499747  0.91596624  0.84124457  1
  H  H104  1  0.88463766  0.91024043  0.49782426  1
  H  H105  1  0.61536286  0.58975946  0.49782489  1
  H  H106  1  0.11536268  0.41024071  0.00217517  1
  H  H107  1  0.38463700  0.08975964  0.00217563  1
  H  H108  1  0.11536317  0.08975911  0.50217461  1
  H  H109  1  0.38463729  0.41024060  0.50217550  1
  H  H110  1  0.88463679  0.58975935  0.99782523  1
  H  H111  1  0.61536316  0.91024093  0.99782477  1
  H  H112  1  0.88337961  0.98299777  0.55287790  1
  H  H113  1  0.61662017  0.51700212  0.55287804  1
  H  H114  1  0.11662079  0.48299741  0.94712235  1
  H  H115  1  0.38337916  0.01700218  0.94712232  1
  H  H116  1  0.11662054  0.01700229  0.44712199  1
  H  H117  1  0.38337930  0.48299794  0.44712235  1
  H  H118  1  0.88337936  0.51700162  0.05287804  1
  H  H119  1  0.61662100  0.98299788  0.05287756  1
  H  H120  1  0.95153066  0.09746402  0.50149950  1
  H  H121  1  0.54846881  0.40253603  0.50149960  1
  H  H122  1  0.04846930  0.59746352  0.99850084  1
  H  H123  1  0.45153096  0.90253591  0.99850067  1
  H  H124  1  0.04846950  0.90253604  0.49850038  1
  H  H125  1  0.45153066  0.59746351  0.49850080  1
  H  H126  1  0.95153017  0.40253602  0.00149904  1
  H  H127  1  0.54846920  0.09746364  0.00149921  1
  H  H128  1  0.99440695  0.09173818  0.41662433  1
  H  H129  1  0.50559262  0.40826188  0.41662495  1
  H  H130  1  0.00559292  0.59173781  0.08337568  1
  H  H131  1  0.49440705  0.90826237  0.08337549  1
  H  H132  1  0.00559389  0.90826188  0.58337505  1
  H  H133  1  0.49440685  0.59173766  0.58337544  1
  H  H134  1  0.99440724  0.40826225  0.91662471  1
  H  H135  1  0.50559311  0.09173820  0.91662491  1
  H  H136  1  0.57090082  0.80370474  0.11264795  1
  H  H137  1  0.92910016  0.69629629  0.11264734  1
  H  H138  1  0.42909823  0.30370481  0.38735150  1
  H  H139  1  0.07090169  0.19629545  0.38735112  1
  H  H140  1  0.42909934  0.19629532  0.88735193  1
  H  H141  1  0.07090068  0.30370429  0.88735204  1
  H  H142  1  0.57090124  0.69629525  0.61264839  1
  H  H143  1  0.92909847  0.80370461  0.61264877  1
  H  H144  1  0.47802042  0.70120696  0.07686656  1
  H  H145  1  0.02198092  0.79879477  0.07686619  1
  H  H146  1  0.52197938  0.20120647  0.42313342  1
  H  H147  1  0.97802086  0.29879360  0.42313326  1
  H  H148  1  0.52197905  0.29879361  0.92313332  1
  H  H149  1  0.97801992  0.20120632  0.92313319  1
  H  H150  1  0.47802078  0.79879359  0.57686646  1
  H  H151  1  0.02197861  0.70120646  0.57686713  1
  H  H152  1  0.32654853  0.71373117  0.26413153  1
  H  H153  1  0.17345259  0.78626897  0.26413208  1
  H  H154  1  0.67345126  0.21373119  0.23586845  1
  H  H155  1  0.82654784  0.28626893  0.23586890  1
  H  H156  1  0.67345094  0.28626941  0.73586835  1
  H  H157  1  0.82654825  0.21373109  0.73586831  1
  H  H158  1  0.32654822  0.78626887  0.76413143  1
  H  H159  1  0.17345164  0.71373113  0.76413098  1
  H  H160  1  0.42129377  0.81642372  0.29979833  1
  H  H161  1  0.07870663  0.68357538  0.29979846  1
  H  H162  1  0.57870596  0.31642326  0.20020163  1
  H  H163  1  0.92129318  0.18357635  0.20020153  1
  H  H164  1  0.57870639  0.18357583  0.70020105  1
  H  H165  1  0.92129353  0.31642365  0.70020092  1
  H  H166  1  0.42129352  0.68357628  0.79979826  1
  H  H167  1  0.07870698  0.81642423  0.79979886  1
  H  H168  1  0.23244498  0.69165603  0.06182372  1
  H  H169  1  0.26755501  0.80834468  0.06182318  1
  H  H170  1  0.76755414  0.19165544  0.43817627  1
  H  H171  1  0.73244540  0.30834462  0.43817677  1
  H  H172  1  0.76755449  0.30834455  0.93817617  1
  H  H173  1  0.73244583  0.19165538  0.93817670  1
  H  H174  1  0.23244533  0.80834462  0.56182362  1
  H  H175  1  0.26755475  0.69165544  0.56182362  1
  H  H176  1  0.20689179  0.63667435  0.94732399  1
  H  H177  1  0.29310853  0.86332613  0.94732342  1
  H  H178  1  0.79310815  0.13667385  0.55267584  1
  H  H179  1  0.70689262  0.36332566  0.55267635  1
  H  H180  1  0.79310769  0.36332520  0.05267641  1
  H  H181  1  0.70689162  0.13667445  0.05267646  1
  H  H182  1  0.20689201  0.86332569  0.44732405  1
  H  H183  1  0.29310821  0.63667440  0.44732354  1
  H  H184  1  0.41412731  0.48693409  0.99075722  1
  H  H185  1  0.08587259  0.01306652  0.99075637  1
  H  H186  1  0.58587241  0.98693353  0.50924303  1
  H  H187  1  0.91412742  0.51306585  0.50924349  1
  H  H188  1  0.58587284  0.51306597  0.00924369  1
  H  H189  1  0.91412757  0.98693302  0.00924352  1
  H  H190  1  0.41412775  0.01306601  0.49075686  1
  H  H191  1  0.08587205  0.48693370  0.49075639  1
  H  H192  1  0.44529206  0.54479341  0.10322277  1
  H  H193  1  0.05470652  0.95520677  0.10322285  1
  H  H194  1  0.55470579  0.04479343  0.39677725  1
  H  H195  1  0.94529244  0.45520768  0.39677758  1
  H  H196  1  0.55470605  0.45520717  0.89677762  1
  H  H197  1  0.94529295  0.04479278  0.89677704  1
  H  H198  1  0.44529301  0.95520715  0.60322263  1
  H  H199  1  0.05470635  0.54479290  0.60322230  1
  C  C200  1  0.48133562  0.06322174  0.26212896  1
  C  C201  1  0.01866512  0.43677752  0.26212856  1
  C  C202  1  0.51866562  0.56322217  0.23787106  1
  C  C203  1  0.98133521  0.93677831  0.23787086  1
  C  C204  1  0.51866522  0.93677781  0.73787092  1
  C  C205  1  0.98133503  0.56322254  0.73787133  1
  C  C206  1  0.48133590  0.43677840  0.76212934  1
  C  C207  1  0.01866495  0.06322227  0.76212852  1
  C  C208  1  0.41023385  0.10965977  0.26594370  1
  C  C209  1  0.08976484  0.39034052  0.26594275  1
  C  C210  1  0.58976668  0.60965966  0.23405631  1
  C  C211  1  0.91023415  0.89034082  0.23405668  1
  C  C212  1  0.58976494  0.89034029  0.73405670  1
  C  C213  1  0.91023463  0.60965954  0.73405663  1
  C  C214  1  0.41023347  0.39034040  0.76594408  1
  C  C215  1  0.08976532  0.10965924  0.76594321  1
  C  C216  1  0.39873188  0.15936549  0.21369582  1
  C  C217  1  0.10126687  0.34063532  0.21369640  1
  C  C218  1  0.60126794  0.65936434  0.28630417  1
  C  C219  1  0.89873284  0.84063561  0.28630405  1
  C  C220  1  0.60126691  0.84063560  0.78630406  1
  C  C221  1  0.89873260  0.65936474  0.78630450  1
  C  C222  1  0.39873290  0.34063572  0.71369622  1
  C  C223  1  0.10126732  0.15936445  0.71369583  1
  C  C224  1  0.46372982  0.15833894  0.16025462  1
  C  C225  1  0.03627104  0.34166085  0.16025473  1
  C  C226  1  0.53627136  0.65833883  0.33974487  1
  C  C227  1  0.96373003  0.84166163  0.33974470  1
  C  C228  1  0.53627102  0.84166112  0.83974476  1
  C  C229  1  0.96372911  0.65833921  0.83974464  1
  C  C230  1  0.46372811  0.34166071  0.66025502  1
  C  C231  1  0.03627081  0.15833895  0.66025518  1
  C  C232  1  0.53438634  0.11121689  0.16213904  1
  C  C233  1  0.96561352  0.38878376  0.16213938  1
  C  C234  1  0.46561419  0.61121680  0.33786046  1
  C  C235  1  0.03438616  0.88878383  0.33786056  1
  C  C236  1  0.46561313  0.88878369  0.83786084  1
  C  C237  1  0.03438732  0.61121681  0.83786102  1
  C  C238  1  0.53438733  0.38878377  0.66213943  1
  C  C239  1  0.96561331  0.11121675  0.66213881  1
  C  C240  1  0.30141402  0.24381890  0.15469505  1
  C  C241  1  0.19858617  0.25618141  0.15469509  1
  C  C242  1  0.69858712  0.74381873  0.34530441  1
  C  C243  1  0.80141427  0.75618121  0.34530437  1
  C  C244  1  0.69858614  0.75618168  0.84530483  1
  C  C245  1  0.80141330  0.74381865  0.84530480  1
  C  C246  1  0.30141440  0.25618133  0.65469548  1
  C  C247  1  0.19858657  0.24381885  0.65469551  1
  C  C248  1  0.27270638  0.21456923  0.27616198  1
  C  C249  1  0.22729367  0.28543105  0.27616198  1
  C  C250  1  0.72729409  0.71456908  0.22383800  1
  C  C251  1  0.77270608  0.78543089  0.22383798  1
  C  C252  1  0.72729378  0.78543083  0.72383791  1
  C  C253  1  0.77270581  0.71456901  0.72383790  1
  C  C254  1  0.27270675  0.28543098  0.77616239  1
  C  C255  1  0.22729408  0.21456917  0.77616190  1
  C  C256  1  0.80340140  0.04548052  0.29403497  1
  C  C257  1  0.69659830  0.45451906  0.29403648  1
  C  C258  1  0.19659849  0.54548005  0.20596403  1
  C  C259  1  0.30340133  0.95451959  0.20596446  1
  C  C260  1  0.19659807  0.95451954  0.70596390  1
  C  C261  1  0.30340117  0.54548048  0.70596442  1
  C  C262  1  0.80340167  0.45451898  0.79403585  1
  C  C263  1  0.69659882  0.04548047  0.79403543  1
  C  C264  1  0.86449301  0.05045670  0.34697446  1
  C  C265  1  0.63550800  0.44954287  0.34697398  1
  C  C266  1  0.13550688  0.55045730  0.15302556  1
  C  C267  1  0.36449232  0.94954286  0.15302594  1
  C  C268  1  0.13550783  0.94954336  0.65302542  1
  C  C269  1  0.36449215  0.55045719  0.65302591  1
  C  C270  1  0.86449259  0.44954328  0.84697433  1
  C  C271  1  0.63550647  0.05045720  0.84697445  1
  C  C272  1  0.86279316  0.00201466  0.40110882  1
  C  C273  1  0.63720642  0.49798541  0.40110934  1
  C  C274  1  0.13720676  0.50201372  0.09889070  1
  C  C275  1  0.36279319  0.99798542  0.09889057  1
  C  C276  1  0.13720768  0.99798540  0.59889106  1
  C  C277  1  0.36279237  0.50201413  0.59889105  1
  C  C278  1  0.86279203  0.49798582  0.90110918  1
  C  C279  1  0.63720697  0.00201412  0.90110932  1
  C  C280  1  0.79190658  0.95230777  0.39782165  1
  C  C281  1  0.70809406  0.54769215  0.39782122  1
  C  C282  1  0.20809374  0.45230799  0.10217878  1
  C  C283  1  0.29190514  0.04769234  0.10217829  1
  C  C284  1  0.20809426  0.04769229  0.60217773  1
  C  C285  1  0.29190541  0.45230791  0.60217867  1
  C  C286  1  0.79190573  0.54769207  0.89782161  1
  C  C287  1  0.70809365  0.95230824  0.89782159  1
  C  C288  1  0.73196729  0.95208357  0.34355643  1
  C  C289  1  0.76803206  0.54791637  0.34355596  1
  C  C290  1  0.26803167  0.45208324  0.15644298  1
  C  C291  1  0.23196715  0.04791656  0.15644356  1
  C  C292  1  0.26803287  0.04791700  0.65644346  1
  C  C293  1  0.23196742  0.45208318  0.65644342  1
  C  C294  1  0.73196780  0.54791682  0.84355690  1
  C  C295  1  0.76803164  0.95208402  0.84355633  1
  C  C296  1  0.92102684  0.95771016  0.51112787  1
  C  C297  1  0.57897299  0.54228973  0.51112804  1
  C  C298  1  0.07897358  0.45771032  0.98887238  1
  C  C299  1  0.42102700  0.04229029  0.98887232  1
  C  C300  1  0.07897331  0.04228990  0.48887201  1
  C  C301  1  0.42102649  0.45770981  0.48887236  1
  C  C302  1  0.92102658  0.54228974  0.01112801  1
  C  C303  1  0.57897315  0.95770977  0.01112756  1
  C  C304  1  0.98444045  0.06300360  0.46388710  1
  C  C305  1  0.51555974  0.43699645  0.46388721  1
  C  C306  1  0.01555943  0.56300375  0.03611292  1
  C  C307  1  0.48444059  0.93699644  0.03611272  1
  C  C308  1  0.01555970  0.93699594  0.53611278  1
  C  C309  1  0.48444041  0.56300361  0.53611268  1
  C  C310  1  0.98444004  0.43699631  0.96388748  1
  C  C311  1  0.51555957  0.06300362  0.96388717  1
  C  C312  1  0.55381855  0.87901888  0.22894436  1
  C  C313  1  0.94618161  0.62098108  0.22894529  1
  C  C314  1  0.44618045  0.37901845  0.27105558  1
  C  C315  1  0.05381892  0.12098131  0.27105574  1
  C  C316  1  0.44618229  0.12098118  0.77105603  1
  C  C317  1  0.05381787  0.37901898  0.77105460  1
  C  C318  1  0.55381902  0.62098161  0.72894329  1
  C  C319  1  0.94618124  0.87901875  0.72894415  1
  C  C320  1  0.50154998  0.81615403  0.20832862  1
  C  C321  1  0.99845021  0.68384594  0.20832796  1
  C  C322  1  0.49844907  0.31615410  0.29167083  1
  C  C323  1  0.00155096  0.18384566  0.29167101  1
  C  C324  1  0.49845018  0.18384551  0.79167178  1
  C  C325  1  0.00155063  0.31615464  0.79167192  1
  C  C326  1  0.50155109  0.68384545  0.70832804  1
  C  C327  1  0.99844851  0.81615491  0.70832888  1
  C  C328  1  0.51693782  0.78381698  0.14541787  1
  C  C329  1  0.98306380  0.71618404  0.14541824  1
  C  C330  1  0.48306192  0.28381549  0.35458107  1
  C  C331  1  0.01693872  0.21618374  0.35458072  1
  C  C332  1  0.48306233  0.21618359  0.85458151  1
  C  C333  1  0.01693704  0.28381550  0.85458165  1
  C  C334  1  0.51693755  0.71618354  0.64541881  1
  C  C335  1  0.98306144  0.78381580  0.64541865  1
  C  C336  1  0.46515403  0.72715224  0.12516679  1
  C  C337  1  0.03484452  0.77284793  0.12516641  1
  C  C338  1  0.53484302  0.22715330  0.37483268  1
  C  C339  1  0.96515591  0.27284729  0.37483253  1
  C  C340  1  0.53484339  0.27284782  0.87483361  1
  C  C341  1  0.96515632  0.22715264  0.87483347  1
  C  C342  1  0.46515646  0.77284727  0.62516619  1
  C  C343  1  0.03484424  0.72715277  0.62516837  1
  C  C344  1  0.39685804  0.70262616  0.16875390  1
  C  C345  1  0.10314250  0.79737400  0.16875450  1
  C  C346  1  0.60314243  0.20262566  0.33124659  1
  C  C347  1  0.89685791  0.29737392  0.33124597  1
  C  C348  1  0.60314211  0.29737442  0.83124547  1
  C  C349  1  0.89685697  0.20262554  0.83124539  1
  C  C350  1  0.39685704  0.79737389  0.66875431  1
  C  C351  1  0.10314088  0.70262563  0.66875442  1
  C  C352  1  0.38019311  0.73443469  0.23162136  1
  C  C353  1  0.11980668  0.76556442  0.23162246  1
  C  C354  1  0.61980667  0.23443472  0.26837862  1
  C  C355  1  0.88019239  0.26556539  0.26837853  1
  C  C356  1  0.61980637  0.26556434  0.76837751  1
  C  C357  1  0.88019415  0.23443564  0.76837743  1
  C  C358  1  0.38019281  0.76556534  0.73162127  1
  C  C359  1  0.11980640  0.73443570  0.73162238  1
  C  C360  1  0.43273101  0.79061483  0.25117469  1
  C  C361  1  0.06727012  0.70938582  0.25117482  1
  C  C362  1  0.56726941  0.29061385  0.24882476  1
  C  C363  1  0.93273103  0.20938574  0.24882465  1
  C  C364  1  0.56726982  0.20938574  0.74882520  1
  C  C365  1  0.93273004  0.29061372  0.74882507  1
  C  C366  1  0.43273075  0.70938569  0.75117563  1
  C  C367  1  0.06726912  0.79061483  0.75117523  1
  C  C368  1  0.33985139  0.62072393  0.08805917  1
  C  C369  1  0.16014857  0.87927574  0.08805869  1
  C  C370  1  0.66014777  0.12072442  0.41194134  1
  C  C371  1  0.83985112  0.37927565  0.41194125  1
  C  C372  1  0.66014740  0.37927562  0.91194123  1
  C  C373  1  0.83985159  0.12072381  0.91194069  1
  C  C374  1  0.33985170  0.87927564  0.58805854  1
  C  C375  1  0.16014768  0.62072441  0.58805914  1
  C  C376  1  0.27376119  0.64818451  0.04467633  1
  C  C377  1  0.22623746  0.85181672  0.04467632  1
  C  C378  1  0.72623796  0.14818393  0.45532316  1
  C  C379  1  0.77376225  0.35181664  0.45532363  1
  C  C380  1  0.72623760  0.35181555  0.95532356  1
  C  C381  1  0.77376134  0.14818386  0.95532357  1
  C  C382  1  0.27376288  0.85181613  0.54467622  1
  C  C383  1  0.22623723  0.64818393  0.54467626  1
  C  C384  1  0.25894901  0.61696997  0.98178885  1
  C  C385  1  0.24105059  0.88302997  0.98178882  1
  C  C386  1  0.74105094  0.11696951  0.51821099  1
  C  C387  1  0.75895056  0.38303053  0.51821196  1
  C  C388  1  0.74104910  0.38303009  0.01821155  1
  C  C389  1  0.75894957  0.11696957  0.01821157  1
  C  C390  1  0.25895058  0.88303004  0.48178890  1
  C  C391  1  0.24105028  0.61697004  0.48178843  1
  C  C392  1  0.30815891  0.55787497  0.96284105  1
  C  C393  1  0.19184003  0.94212550  0.96284053  1
  C  C394  1  0.69184039  0.05787400  0.53715880  1
  C  C395  1  0.80816039  0.44212500  0.53715922  1
  C  C396  1  0.69183989  0.44212457  0.03715934  1
  C  C397  1  0.80815944  0.05787456  0.03715935  1
  C  C398  1  0.30816044  0.94212503  0.46284058  1
  C  C399  1  0.19183976  0.55787454  0.46284067  1
  C  C400  1  0.37663818  0.53301112  0.00607382  1
  C  C401  1  0.12336119  0.96698908  0.00607334  1
  C  C402  1  0.62336240  0.03301109  0.49392672  1
  C  C403  1  0.87663844  0.46698948  0.49392760  1
  C  C404  1  0.62336130  0.46698843  0.99392709  1
  C  C405  1  0.87663760  0.03301046  0.99392655  1
  C  C406  1  0.37663844  0.96698897  0.50607317  1
  C  C407  1  0.12336240  0.53301110  0.50607330  1
  C  C408  1  0.39357508  0.56465432  0.06858169  1
  C  C409  1  0.10642354  0.93534690  0.06858174  1
  C  C410  1  0.60642344  0.06465276  0.43141833  1
  C  C411  1  0.89357679  0.43534627  0.43141768  1
  C  C412  1  0.60642372  0.43534574  0.93141921  1
  C  C413  1  0.89357593  0.06465265  0.93141764  1
  C  C414  1  0.39357672  0.93534730  0.56858156  1
  C  C415  1  0.10642405  0.56465276  0.56858170  1
  C  C416  1  0.28227761  0.51741544  0.90018090  1
  C  C417  1  0.21772208  0.98258453  0.90018086  1
  C  C418  1  0.71772171  0.01741547  0.59981896  1
  C  C419  1  0.78227832  0.48258455  0.59981990  1
  C  C420  1  0.71772186  0.48258411  0.09981949  1
  C  C421  1  0.78227808  0.01741553  0.09981902  1
  C  C422  1  0.28227844  0.98258459  0.40018093  1
  C  C423  1  0.21772251  0.51741603  0.40018050  1
  N  N424  1  0.54461804  0.06356271  0.21188010  1
  N  N425  1  0.95538108  0.43643690  0.21187941  1
  N  N426  1  0.45538252  0.56356316  0.28811992  1
  N  N427  1  0.04461857  0.93643749  0.28812000  1
  N  N428  1  0.45538211  0.93643735  0.78812029  1
  N  N429  1  0.04461771  0.56356265  0.78811996  1
  N  N430  1  0.54461764  0.43643690  0.71188048  1
  N  N431  1  0.95538158  0.06356257  0.71188039  1
  N  N432  1  0.32812513  0.20495418  0.21490952  1
  N  N433  1  0.17187567  0.29504508  0.21490956  1
  N  N434  1  0.67187670  0.70495455  0.28509046  1
  N  N435  1  0.82812475  0.79504592  0.28509040  1
  N  N436  1  0.67187502  0.79504484  0.78509037  1
  N  N437  1  0.82812381  0.70495446  0.78509084  1
  N  N438  1  0.32812481  0.29504551  0.71490993  1
  N  N439  1  0.17187609  0.20495466  0.71490948  1
  N  N440  1  0.73708862  0.99703990  0.29106102  1
  N  N441  1  0.76291147  0.50296006  0.29106057  1
  N  N442  1  0.26291100  0.49704058  0.20893940  1
  N  N443  1  0.23708845  0.00296023  0.20893947  1
  N  N444  1  0.26291154  0.00295965  0.70893937  1
  N  N445  1  0.23708869  0.49703949  0.70893983  1
  N  N446  1  0.73708779  0.50295948  0.79106049  1
  N  N447  1  0.76291034  0.99704034  0.79106042  1
  N  N448  1  0.92621257  0.00319463  0.45213688  1
  N  N449  1  0.57378763  0.49680543  0.45213693  1
  N  N450  1  0.07378734  0.50319476  0.04786264  1
  N  N451  1  0.42621266  0.99680595  0.04786348  1
  N  N452  1  0.07378758  0.99680543  0.54786199  1
  N  N453  1  0.42621252  0.50319412  0.54786295  1
  N  N454  1  0.92621213  0.49680530  0.95213775  1
  N  N455  1  0.57378749  0.00319463  0.95213691  1
  O  O456  1  0.60503987  0.90601034  0.18154355  1
  O  O457  1  0.89495898  0.59398964  0.18154299  1
  O  O458  1  0.39495980  0.40600940  0.31845587  1
  O  O459  1  0.10504088  0.09398932  0.31845702  1
  O  O460  1  0.39496029  0.09398972  0.81845735  1
  O  O461  1  0.10504049  0.40601042  0.81845639  1
  O  O462  1  0.60504104  0.59399014  0.68154300  1
  O  O463  1  0.89495927  0.90601074  0.68154286  1
  O  O464  1  0.54566641  0.90325410  0.28786315  1
  O  O465  1  0.95433163  0.59674688  0.28786204  1
  O  O466  1  0.45433258  0.40325369  0.21213678  1
  O  O467  1  0.04566755  0.09674610  0.21213644  1
  O  O468  1  0.45433374  0.09674596  0.71213673  1
  O  O469  1  0.04566716  0.40325369  0.71213734  1
  O  O470  1  0.54566758  0.59674586  0.78786412  1
  O  O471  1  0.95433261  0.90325448  0.78786293  1
  O  O472  1  0.34468219  0.64572531  0.15452437  1
  O  O473  1  0.15531701  0.85427382  0.15452441  1
  O  O474  1  0.65531627  0.14572582  0.34547563  1
  O  O475  1  0.84468269  0.35427427  0.34547554  1
  O  O476  1  0.65531660  0.35427423  0.84547551  1
  O  O477  1  0.84468383  0.14572572  0.84547548  1
  O  O478  1  0.34468388  0.85427424  0.65452426  1
  O  O479  1  0.15531678  0.64572579  0.65452486  1
  O  O480  1  0.21949366  0.54658400  0.86297851  1
  O  O481  1  0.28050744  0.95341598  0.86297895  1
  O  O482  1  0.78050701  0.04658349  0.63702185  1
  O  O483  1  0.71949298  0.45341549  0.63702233  1
  O  O484  1  0.78050650  0.45341606  0.13702188  1
  O  O485  1  0.71949408  0.04658408  0.13702246  1
  O  O486  1  0.21949451  0.95341657  0.36297753  1
  O  O487  1  0.28050581  0.54658354  0.36297807  1
  O  O488  1  0.31728815  0.45978457  0.88944825  1
  O  O489  1  0.18271186  0.04021555  0.88944834  1
  O  O490  1  0.68271158  0.95978395  0.61055252  1
  O  O491  1  0.81728745  0.54021488  0.61055202  1
  O  O492  1  0.68271064  0.54021497  0.11055317  1
  O  O493  1  0.81728898  0.95978348  0.11055205  1
  O  O494  1  0.31728789  0.04021611  0.38944890  1
  O  O495  1  0.18271134  0.45978363  0.38944787  1
